@<TRIPOS>MOLECULE
1a2n_TET_1_ligand
   76    78     1     0     0
SMALL
NO_CHARGES


@<TRIPOS>ATOM
     1 C1          48.8840    22.3450    35.5710 C.2          1 TET420   0.0000
     2 N1          50.0350    22.6720    36.1030 N.pl3        1 TET420   0.0000
     3 C3          50.3320    22.6350    37.3630 C.2          1 TET420   0.0000
     4 N2          49.3940    22.2630    38.2930 N.pl3        1 TET420   0.0000
     5 C5          48.1570    21.8900    37.8720 C.2          1 TET420   0.0000
     6 C6          47.8790    21.9480    36.5250 C.2          1 TET420   0.0000
     7 O1          48.7100    22.4380    34.3790 O.2          1 TET420   0.0000
     8 O2          51.4410    23.0520    37.7060 O.2          1 TET420   0.0000
     9 C9          48.8100    23.1030    40.6230 C.3          1 TET420   0.0000
    10 C2          49.7500    22.2790    39.7180 C.3          1 TET420   0.0000
    11 O3          49.5530    20.9420    40.0950 O.3          1 TET420   0.0000
    12 C4          49.0880    20.8470    41.4090 C.3          1 TET420   0.0000
    13 C15         48.9250    22.3100    41.9800 C.3          1 TET420   0.0000
    14 C12         47.7660    20.0620    41.2510 C.3          1 TET420   0.0000
    15 O14         50.0840    22.9840    42.6460 O.3          1 TET420   0.0000
    16 O11         48.8240    24.5940    40.4240 O.3          1 TET420   0.0000
    17 O4          46.6990    20.7830    40.5920 O.3          1 TET420   0.0000
    18 P1          45.5540    19.9700    39.9420 P.3          1 TET420   0.0000
    19 O5          45.7580    18.6050    40.3760 O.co2        1 TET420   0.0000
    20 O6          45.5470    20.0670    38.4780 O.co2        1 TET420  -1.0000
    21 O7          44.2400    20.2290    40.5730 O.3          1 TET420   0.0000
    22 P2          43.1760    21.0090    39.8650 P.3          1 TET420   0.0000
    23 O8          41.8030    21.0030    40.5950 O.3          1 TET420   0.0000
    24 O9          42.8270    20.3110    38.6820 O.co2        1 TET420   0.0000
    25 O10         43.6170    22.3650    39.5420 O.co2        1 TET420  -1.0000
    26 C10         41.1980    19.8180    41.1000 C.3          1 TET420   0.0000
    27 C18         40.0270    20.2250    41.9970 C.3          1 TET420   0.0000
    28 C13         40.4960    21.0160    43.2090 C.3          1 TET420   0.0000
    29 C20         41.5280    20.1180    43.9700 C.3          1 TET420   0.0000
    30 C16         42.6570    19.7800    43.0030 C.3          1 TET420   0.0000
    31 C17         43.8560    19.0270    43.6360 C.3          1 TET420   0.0000
    32 C7          38.3310    20.6900    40.3530 C.2          1 TET420   0.0000
    33 N3          39.0990    21.0970    41.3170 N.am         1 TET420   0.0000
    34 O21         39.3280    21.2910    44.0240 O.3          1 TET420   0.0000
    35 O22         42.2430    20.4760    45.2150 O.3          1 TET420   0.0000
    36 O23         42.1200    19.0770    41.8720 O.3          1 TET420   0.0000
    37 O24         43.6190    17.6740    44.2820 O.3          1 TET420   0.0000
    38 O12         38.4910    19.5780    39.8990 O.2          1 TET420   0.0000
    39 C8          37.2840    21.7050    39.9190 C.3          1 TET420   0.0000
    40 C11         38.9440    22.6660    44.3570 C.3          1 TET420   0.0000
    41 C19         40.0570    23.6650    44.4610 C.3          1 TET420   0.0000
    42 O13         38.1080    23.1940    43.2950 O.3          1 TET420   0.0000
    43 P3          38.4640    24.4340    42.4810 P.3          1 TET420   0.0000
    44 O15         37.0970    24.8120    42.3360 O.co2        1 TET420   0.0000
    45 O16         39.1660    24.1290    41.2040 O.co2        1 TET420  -1.0000
    46 O17         39.0020    25.5250    43.2500 O.co2        1 TET420  -1.0000
    47 C14         38.2900    22.6570    45.8340 C.2          1 TET420   0.0000
    48 O18         37.0560    22.1750    45.8230 O.co2        1 TET420   0.0000
    49 O19         38.7770    23.0630    46.8540 O.co2        1 TET420  -1.0000
    50 F1          41.1310    22.9800    44.8910 F            1 TET420   0.0000
    51 H1          50.7522    22.9792    35.4774 H            1 TET420   0.0000
    52 H2          47.4654    21.5809    38.5248 H            1 TET420   0.0000
    53 H3          46.9628    21.7103    36.2024 H            1 TET420   0.0000
    54 H4          47.9024    22.8445    40.2923 H            1 TET420   0.0000
    55 H5          50.7033    22.5519    39.8471 H            1 TET420   0.0000
    56 H6          49.7342    20.3274    41.9680 H            1 TET420   0.0000
    57 H7          48.0909    22.3974    42.5246 H            1 TET420   0.0000
    58 H8          47.4481    19.8039    42.1633 H            1 TET420   0.0000
    59 H9          47.9572    19.2372    40.7189 H            1 TET420   0.0000
    60 H10         50.2533    22.5560    43.5338 H            1 TET420   0.0000
    61 H11         49.0988    25.0413    41.2751 H            1 TET420   0.0000
    62 H12         40.8647    19.2582    40.3413 H            1 TET420   0.0000
    63 H13         39.5451    19.4044    42.3041 H            1 TET420   0.0000
    64 H14         40.9267    21.8710    42.9200 H            1 TET420   0.0000
    65 H15         41.0581    19.2557    44.1590 H            1 TET420   0.0000
    66 H16         43.0119    20.6495    42.6596 H            1 TET420   0.0000
    67 H17         44.2382    19.6249    44.3406 H            1 TET420   0.0000
    68 H18         44.5318    18.8912    42.9116 H            1 TET420   0.0000
    69 H19         39.0456    22.0545    41.6005 H            1 TET420   0.0000
    70 H20         41.5791    20.6513    45.9420 H            1 TET420   0.0000
    71 H21         43.3974    17.8005    45.2489 H            1 TET420   0.0000
    72 H22         36.7346    21.3207    39.1771 H            1 TET420   0.0000
    73 H23         36.6911    21.9243    40.6938 H            1 TET420   0.0000
    74 H24         37.7382    22.5371    39.6008 H            1 TET420   0.0000
    75 H25         39.8189    24.3837    45.1143 H            1 TET420   0.0000
    76 H26         40.2410    24.0744    43.5674 H            1 TET420   0.0000
@<TRIPOS>BOND
     1    1    2       1
     2    1    6       1
     3    1    7       2
     4    2    3       1
     5    3    4       1
     6    3    8       2
     7    4    5       1
     8    4   10       1
     9    5    6       2
    10    9   10       1
    11    9   13       1
    12    9   16       1
    13   10   11       1
    14   11   12       1
    15   12   13       1
    16   12   14       1
    17   13   15       1
    18   14   17       1
    19   17   18       1
    20   18   19      ar
    21   18   20      ar
    22   18   21       1
    23   21   22       1
    24   22   23       1
    25   22   24      ar
    26   22   25      ar
    27   23   26       1
    28   26   27       1
    29   26   36       1
    30   27   28       1
    31   27   33       1
    32   28   29       1
    33   28   34       1
    34   29   30       1
    35   29   35       1
    36   30   31       1
    37   30   36       1
    38   31   37       1
    39   32   33      am
    40   32   38       2
    41   32   39       1
    42   34   40       1
    43   40   41       1
    44   40   42       1
    45   40   47       1
    46   41   50       1
    47   42   43       1
    48   43   44      ar
    49   43   45      ar
    50   43   46      ar
    51   47   48      ar
    52   47   49      ar
    53    2   51       1
    54    5   52       1
    55    6   53       1
    56    9   54       1
    57   10   55       1
    58   12   56       1
    59   13   57       1
    60   14   58       1
    61   14   59       1
    62   15   60       1
    63   16   61       1
    64   41   75       1
    65   41   76       1
    66   26   62       1
    67   27   63       1
    68   28   64       1
    69   29   65       1
    70   30   66       1
    71   31   67       1
    72   31   68       1
    73   33   69       1
    74   35   70       1
    75   37   71       1
    76   39   72       1
    77   39   73       1
    78   39   74       1
@<TRIPOS>SUBSTRUCTURE
     1 TET420      1 GROUP             4 A     TET     0 **** TET A 420
