@<TRIPOS>MOLECULE
mol
51 74
SMALL
NO_CHARGES
@<TRIPOS>ATOM
1  O -3.7842 -1.8921 0.3986 O
2  Ti -3.7842 -1.8921 2.3786 Ti
3  O -3.7842 0.0 -1.9799 O
4  Ti -3.7842 0.0 0.0 Ti
5  O -3.7842 0.0 1.9799 O
6  O -3.7842 1.8921 0.3985 O
7  Ti -3.7842 1.8921 2.3785 Ti
8  Ti -1.8921 -3.7842 -2.3785 Ti
9  O -1.8921 -3.7842 -0.3986 O
10  O -1.8921 -1.8921 -2.7772 O
11  O -1.8921 -1.8921 2.7772 O
12  O -1.8921 0.0 -4.3586 O
13  Ti -1.8921 0.0 -2.3785 Ti
14  O -1.8921 0.0 -0.3986 O
15  O -1.8921 1.8921 -2.7772 O
16  O -1.8921 1.8921 2.7772 O
17  Ti -1.8921 3.7842 -2.3785 Ti
18  O -1.8921 3.7842 -0.3986 O
19  O 0.0 -3.7842 -1.9799 O
20  Ti 0.0 -3.7842 0.0 Ti
21  O 0.0 -3.7842 1.9799 O
22  O 0.0 -1.8921 0.3985 O
23  Ti 0.0 -1.8921 2.3785 Ti
24  O 0.0 -1.8921 4.3586 O
25  O 0.0 0.0 -1.9799 O
26  Ti 0.0 0.0 0.0 Ti
27  O 0.0 0.0 1.9799 O
28  O 0.0 1.8921 0.3985 O
29  Ti 0.0 1.8921 2.3785 Ti
30  O 0.0 1.8921 4.3586 O
31  O 0.0 3.7842 -1.9799 O
32  Ti 0.0 3.7842 0.0 Ti
33  O 0.0 3.7842 1.9799 O
34  Ti 1.8921 -3.7842 -2.3785 Ti
35  O 1.8921 -3.7842 -0.3986 O
36  O 1.8921 -1.8921 -2.7772 O
37  O 1.8921 -1.8921 2.7772 O
38  O 1.8921 0.0 -4.3586 O
39  Ti 1.8921 0.0 -2.3785 Ti
40  O 1.8921 0.0 -0.3986 O
41  O 1.8921 1.8921 -2.7772 O
42  O 1.8921 1.8921 2.7772 O
43  Ti 1.8921 3.7842 -2.3785 Ti
44  O 1.8921 3.7842 -0.3986 O
45  O 3.7842 -1.8921 0.3985 O
46  Ti 3.7842 -1.8921 2.3785 Ti
47  O 3.7842 0.0 -1.9799 O
48  Ti 3.7842 0.0 0.0 Ti
49  O 3.7842 0.0 1.9799 O
50  O 3.7842 1.8921 0.3985 O
51  Ti 3.7842 1.8921 2.3785 Ti
@<TRIPOS>BOND
1 1 2 2
2 1 4 2
3 2 5 2
4 2 11 2
5 3 4 2
6 3 13 2
7 4 5 2
8 4 6 2
9 4 14 2
10 5 7 2
11 6 7 2
12 7 16 2
13 8 9 2
14 8 10 2
15 8 19 2
16 9 20 2
17 10 13 2
18 11 23 2
19 12 13 2
20 13 14 2
21 13 15 2
22 13 25 2
23 14 26 2
24 15 17 2
25 16 29 2
26 17 18 2
27 17 31 2
28 18 32 2
29 19 20 2
30 19 34 2
31 20 21 2
32 20 22 2
33 20 35 2
34 21 23 2
35 22 23 2
36 22 26 2
37 23 24 2
38 23 27 2
39 23 37 2
40 25 26 2
41 25 39 2
42 26 27 2
43 26 28 2
44 26 40 2
45 27 29 2
46 28 29 2
47 28 32 2
48 29 30 2
49 29 33 2
50 29 42 2
51 31 32 2
52 31 43 2
53 32 33 2
54 32 44 2
55 34 35 2
56 34 36 2
57 36 39 2
58 37 46 2
59 38 39 2
60 39 40 2
61 39 41 2
62 39 47 2
63 40 48 2
64 41 43 2
65 42 51 2
66 43 44 2
67 45 46 2
68 45 48 2
69 46 49 2
70 47 48 2
71 48 49 2
72 48 50 2
73 49 51 2
74 50 51 2