@<TRIPOS>MOLECULE
Mpro-x2563_ligand
35   37    1
SMALL
USER_CHARGES


@<TRIPOS>ATOM
      1 O           8.7144    1.0128   20.9939 O.2       1 LIG        -0.5000 
      2 C           8.4893   -0.1716   21.2591 C.2       1 LIG         0.5000 
      3 N1          9.1309   -0.8569   22.2135 N.am      1 LIG        -0.3850 
      4 C11         9.9506   -0.2151   23.1475 C.ar      1 LIG         0.0850 
      5 C16         9.3639    0.3044   24.3163 C.ar      1 LIG        -0.1150 
      6 C15        10.1282    1.1135   25.1704 C.ar      1 LIG        -0.1150 
      7 C14        11.4721    1.3719   24.8524 C.ar      1 LIG        -0.1150 
      8 C13        12.0835    0.7784   23.7360 C.ar      1 LIG        -0.1150 
      9 C12        11.3183   -0.0256   22.8755 C.ar      1 LIG        -0.1150 
     10 C1          7.4623   -0.9723   20.4743 C.3       1 LIG        -0.0050 
     11 C2          6.5771   -0.1056   19.6008 C.ar      1 LIG        -0.2232 
     12 C10         5.4892    0.6455   20.1127 C.ar      1 LIG         0.3916 
     13 C9          5.1451    0.6360   21.4831 C.ar      1 LIG        -0.3888 
     14 C8          4.0639    1.4084   21.9453 C.ar      1 LIG         0.0388 
     15 C7          3.3149    2.1905   21.0471 C.ar      1 LIG        -0.1058 
     16 C6          3.6500    2.2115   19.6809 C.ar      1 LIG        -0.2582 
     17 C5          4.7314    1.4407   19.2131 C.ar      1 LIG         0.0891 
     18 C4          5.0733    1.4555   17.8477 C.ar      1 LIG         0.0225 
     19 N           6.1068    0.7139   17.4066 N.pl3     1 LIG        -0.2229 
     20 C3          6.8575   -0.0497   18.2243 C.ar      1 LIG         0.0028 
     21 HN1         8.8547   -1.8119   22.4022 H         1 LIG         0.3000 
     22 HC16        8.3188    0.1336   24.5254 H         1 LIG         0.1150 
     23 HC15        9.6773    1.5645   26.0425 H         1 LIG         0.1150 
     24 HC14       12.0358    2.0453   25.4575 H         1 LIG         0.1150 
     25 HC13       13.1270    0.9627   23.5341 H         1 LIG         0.1150 
     26 HC12       11.7685   -0.4678   22.0021 H         1 LIG         0.1150 
     27 H1_1        6.8574   -1.6023   21.1250 H         1 LIG         0.0600 
     28 H1_2        8.0477   -1.6249   19.8468 H         1 LIG         0.0600 
     29 HC9         5.6992    0.0489   22.1987 H         1 LIG         0.2196 
     30 HC8         3.8041    1.3989   22.9940 H         1 LIG         0.1626 
     31 HC7         2.4868    2.7822   21.4094 H         1 LIG         0.1745 
     32 HC6         3.0806    2.8249   18.9956 H         1 LIG         0.2071 
     33 HC4         4.5727    2.0509   17.1026 H         1 LIG         0.2004 
     34 HN          6.3465    0.7336   16.4133 H         1 LIG         0.3716 
     35 HC3         7.6704   -0.5918   17.7666 H         1 LIG         0.2033 
@<TRIPOS>BOND
     1    1    2 2    
     2    2    3 am   BACKBONE|DICT|INTERRES
     3    2   10 1    
     4    3    4 1    
     5    3   21 1    
     6    4    5 ar   
     7    4    9 ar   
     8    5    6 ar   
     9    5   22 1    
    10    6    7 ar   
    11    6   23 1    
    12    7    8 ar   
    13    7   24 1    
    14    8    9 ar   
    15    8   25 1    
    16    9   26 1    
    17   10   11 1    
    18   10   27 1    
    19   10   28 1    
    20   11   12 ar   
    21   11   20 ar   
    22   12   13 ar   
    23   12   17 ar   
    24   13   14 ar   
    25   13   29 1    
    26   14   15 ar   
    27   14   30 1    
    28   15   16 ar   
    29   15   31 1    
    30   16   17 ar   
    31   16   32 1    
    32   17   18 ar   
    33   18   19 ar   
    34   18   33 1    
    35   19   20 ar   
    36   19   34 1    
    37   20   35 1    
@<TRIPOS>SUBSTRUCTURE
     1 LIG         1 GROUP             0 A     ****    0 ROOT    
