@<TRIPOS>MOLECULE
Mpro-x12715_ligand
39   42    1
SMALL
USER_CHARGES


@<TRIPOS>ATOM
      1 CL         13.7872   -1.8334   20.8816 Cl        1 LIG        -0.1800 
      2 C13        12.8427   -0.8859   21.9663 C.ar      1 LIG         0.1800 
      3 C12        13.4709    0.0722   22.7796 C.ar      1 LIG        -0.1150 
      4 C11        12.7109    0.8186   23.6953 C.ar      1 LIG        -0.1150 
      5 C14        11.4467   -1.0588   22.0388 C.ar      1 LIG        -0.1150 
      6 C15        10.6784   -0.2788   22.9298 C.ar      1 LIG        -0.1150 
      7 C10        11.3270    0.6163   23.8127 C.ar      1 LIG         0.0850 
      8 O1         10.6432    1.2954   24.7908 O.3       1 LIG        -0.2850 
      9 C9          9.4823    0.6248   25.2595 C.3       1 LIG         0.1400 
     10 C8          8.5097    0.4035   24.0988 C.3       1 LIG        -0.1200 
     11 C7          9.1540   -0.3558   22.9143 C.3       1 LIG         0.0550 
     12 C6          8.6229    0.2309   21.5978 C.2       1 LIG         0.5000 
     13 O           9.1742    1.2012   21.0743 O.2       1 LIG        -0.5000 
     14 N3          7.5307   -0.3553   21.0893 N.am      1 LIG        -0.3850 
     15 C5          6.7964    0.1859   20.0167 C.ar      1 LIG        -0.2070 
     16 C4          7.2610    0.0788   18.6960 C.ar      1 LIG         0.4730 
     17 N2          6.5905    0.5900   17.6441 N.ar      1 LIG        -0.6780 
     18 C3          5.4239    1.2512   17.8263 C.ar      1 LIG         0.4730 
     19 C16         5.5797    0.8612   20.2252 C.ar      1 LIG         0.1306 
     20 N           4.8124    1.1976   21.3375 N.pl3     1 LIG        -0.0735 
     21 C           5.0661    0.9146   22.7338 C.3       1 LIG        -0.0575 
     22 C2          4.8718    1.4126   19.1183 C.ar      1 LIG         0.0304 
     23 N1          3.7125    2.0510   19.5238 N.2       1 LIG        -0.5630 
     24 C1          3.7641    1.8801   20.8404 C.ar      1 LIG         0.2750 
     25 HC12       14.5347    0.2343   22.7125 H         1 LIG         0.1150 
     26 HC11       13.1894    1.5442   24.3235 H         1 LIG         0.1150 
     27 HC14       10.9566   -1.7791   21.4031 H         1 LIG         0.1150 
     28 H9_1        9.0139    1.2301   26.0357 H         1 LIG         0.0300 
     29 H9_2        9.7623   -0.3237   25.7205 H         1 LIG         0.0300 
     30 H8_1        8.1688    1.3923   23.7870 H         1 LIG         0.0600 
     31 H8_2        7.6179   -0.1220   24.4402 H         1 LIG         0.0600 
     32 HC7         8.8888   -1.4103   22.9670 H         1 LIG         0.0600 
     33 HN3         7.0840   -1.0778   21.6349 H         1 LIG         0.3000 
     34 HC4         8.1945   -0.4184   18.4740 H         1 LIG         0.0120 
     35 HC3         4.9553    1.6674   16.9510 H         1 LIG         0.0120 
     36 HXT1        4.1250    0.8793   23.2816 H         1 LIG         0.0600 
     37 HXT2        5.5597   -0.0490   22.8441 H         1 LIG         0.0600 
     38 HXT3        5.6984    1.6945   23.1573 H         1 LIG         0.0600 
     39 HC1         2.9925    2.2769   21.4848 H         1 LIG         0.0780 
@<TRIPOS>BOND
     1    1    2 1    
     2    2    3 ar   
     3    2    5 ar   
     4    3    4 ar   
     5    3   25 1    
     6    4    7 ar   
     7    4   26 1    
     8    5    6 ar   
     9    5   27 1    
    10    6    7 ar   
    11    6   11 1    
    12    7    8 1    
    13    8    9 1    
    14    9   10 1    
    15    9   28 1    
    16    9   29 1    
    17   10   11 1    
    18   10   30 1    
    19   10   31 1    
    20   11   12 1    
    21   11   32 1    
    22   12   13 2    
    23   12   14 am   BACKBONE|DICT|INTERRES
    24   14   15 1    
    25   14   33 1    
    26   15   16 ar   
    27   15   19 ar   
    28   16   17 ar   
    29   16   34 1    
    30   17   18 ar   
    31   18   22 ar   
    32   18   35 1    
    33   19   20 ar   
    34   19   22 ar   
    35   20   21 1    
    36   20   24 ar   
    37   21   36 1    
    38   21   37 1    
    39   21   38 1    
    40   22   23 ar   
    41   23   24 ar   
    42   24   39 1    
@<TRIPOS>SUBSTRUCTURE
     1 LIG         1 GROUP             0 A     ****    0 ROOT    
