@<TRIPOS>MOLECULE
Mpro-x2649_ligand
34   35    1
SMALL
USER_CHARGES


@<TRIPOS>ATOM
      1 CL         13.7529   -1.8704   21.1266 Cl        1 LIG        -0.1800 
      2 C13        12.6018   -1.0969   22.1437 C.ar      1 LIG         0.1800 
      3 C12        13.0013   -0.0716   23.0205 C.ar      1 LIG        -0.1150 
      4 C11        12.0481    0.5618   23.8388 C.ar      1 LIG        -0.1150 
      5 C10        10.6925    0.1891   23.7589 C.ar      1 LIG        -0.1150 
      6 C14        11.2529   -1.4847   22.0851 C.ar      1 LIG        -0.1150 
      7 C9         10.2835   -0.8256   22.8649 C.ar      1 LIG        -0.1150 
      8 C1          8.8107   -1.1579   22.6437 C.3       1 LIG         0.0550 
      9 C           7.9563   -1.0733   23.9239 C.3       1 LIG        -0.1800 
     10 C2          8.2459   -0.2523   21.5342 C.2       1 LIG         0.5000 
     11 O           8.8238    0.7837   21.1938 O.2       1 LIG        -0.5000 
     12 N           7.1114   -0.6687   20.9559 N.am      1 LIG        -0.3850 
     13 C3          6.4330    0.0590   19.9582 C.ar      1 LIG        -0.2070 
     14 C7          5.3003    0.8458   20.2619 C.ar      1 LIG         0.1770 
     15 C8          4.7741    0.9568   21.6771 C.3       1 LIG        -0.0650 
     16 C6          4.6787    1.5536   19.2154 C.ar      1 LIG        -0.4470 
     17 C5          5.2028    1.4290   17.9163 C.ar      1 LIG         0.4730 
     18 N1          6.2742    0.6682   17.6199 N.ar      1 LIG        -0.6780 
     19 C4          6.8783    0.0030   18.6248 C.ar      1 LIG         0.4730 
     20 HC12       14.0354    0.2309   23.0629 H         1 LIG         0.1150 
     21 HC11       12.3559    1.3546   24.5016 H         1 LIG         0.1150 
     22 HC10        9.9654    0.7164   24.3550 H         1 LIG         0.1150 
     23 HC14       10.9508   -2.2673   21.4099 H         1 LIG         0.1150 
     24 HC1         8.7608   -2.1871   22.2832 H         1 LIG         0.0600 
     25 HXT1        6.9406   -1.4266   23.7433 H         1 LIG         0.0600 
     26 HXT2        8.3787   -1.6933   24.7151 H         1 LIG         0.0600 
     27 HXT3        7.8762   -0.0537   24.3014 H         1 LIG         0.0600 
     28 HN          6.6693   -1.5121   21.2996 H         1 LIG         0.3000 
     29 H8_1        3.8677    1.5602   21.7147 H         1 LIG         0.0600 
     30 H8_2        4.5435   -0.0292   22.0733 H         1 LIG         0.0600 
     31 H8_3        5.5206    1.4166   22.3247 H         1 LIG         0.0600 
     32 HC6         3.8262    2.1901   19.3973 H         1 LIG         0.1550 
     33 HC5         4.7767    1.9827   17.0965 H         1 LIG         0.0120 
     34 HC4         7.7426   -0.5869   18.3578 H         1 LIG         0.0120 
@<TRIPOS>BOND
     1    1    2 1    
     2    2    3 ar   
     3    2    6 ar   
     4    3    4 ar   
     5    3   20 1    
     6    4    5 ar   
     7    4   21 1    
     8    5    7 ar   
     9    5   22 1    
    10    6    7 ar   
    11    6   23 1    
    12    7    8 1    
    13    8    9 1    
    14    8   10 1    
    15    8   24 1    
    16    9   25 1    
    17    9   26 1    
    18    9   27 1    
    19   10   11 2    
    20   10   12 am   BACKBONE|DICT|INTERRES
    21   12   13 1    
    22   12   28 1    
    23   13   14 ar   
    24   13   19 ar   
    25   14   15 1    
    26   14   16 ar   
    27   15   29 1    
    28   15   30 1    
    29   15   31 1    
    30   16   17 ar   
    31   16   32 1    
    32   17   18 ar   
    33   17   33 1    
    34   18   19 ar   
    35   19   34 1    
@<TRIPOS>SUBSTRUCTURE
     1 LIG         1 GROUP             0 A     ****    0 ROOT    
