@<TRIPOS>MOLECULE
Mpro-x11501_ligand
37   39    1
SMALL
USER_CHARGES


@<TRIPOS>ATOM
      1 CL         13.8057   -1.8627   21.1742 Cl        1 LIG        -0.1800 
      2 C7         12.6456   -1.0120   22.1156 C.ar      1 LIG         0.1800 
      3 C6         13.0282    0.0803   22.9156 C.ar      1 LIG        -0.1150 
      4 C5         12.0564    0.7838   23.6516 C.ar      1 LIG        -0.1150 
      5 C4         10.7022    0.4055   23.5771 C.ar      1 LIG        -0.1150 
      6 C8         11.3011   -1.4113   22.0690 C.ar      1 LIG        -0.1150 
      7 C3         10.3234   -0.6883   22.7740 C.ar      1 LIG        -0.1150 
      8 C2          8.8660   -1.0723   22.6206 C.3       1 LIG        -0.0050 
      9 C1          8.2110   -0.3317   21.4366 C.2       1 LIG         0.5000 
     10 O           8.7564    0.6730   20.9693 O.2       1 LIG        -0.5000 
     11 N           7.0378   -0.7978   20.9495 N.am      1 LIG        -0.1550 
     12 C           6.3759   -1.9743   21.5116 C.3       1 LIG        -0.1100 
     13 C9          6.3583   -0.0882   19.9230 C.ar      1 LIG        -0.4271 
     14 C17         5.2315    0.7267   20.1910 C.ar      1 LIG         0.6486 
     15 C16         4.7032    0.8891   21.4907 C.ar      1 LIG        -0.4445 
     16 C15         3.5868    1.7197   21.7007 C.ar      1 LIG        -0.0460 
     17 C14         2.9940    2.3976   20.6211 C.ar      1 LIG        -0.1533 
     18 C13         3.5166    2.2517   19.3232 C.ar      1 LIG        -0.1818 
     19 C12         4.6276    1.4138   19.1095 C.ar      1 LIG        -0.2505 
     20 C11         5.1620    1.2435   17.8197 C.ar      1 LIG         0.3967 
     21 N1          6.2333    0.4698   17.5629 N.ar      1 LIG        -0.6841 
     22 C10         6.8193   -0.1720   18.5939 C.ar      1 LIG         0.4845 
     23 HC6        14.0614    0.3882   22.9530 H         1 LIG         0.1150 
     24 HC5        12.3457    1.6293   24.2527 H         1 LIG         0.1150 
     25 HC4         9.9535    0.9665   24.1145 H         1 LIG         0.1150 
     26 HC8        11.0138   -2.2616   21.4714 H         1 LIG         0.1150 
     27 H2_1        8.3254   -0.8472   23.5397 H         1 LIG         0.0600 
     28 H2_2        8.8246   -2.1518   22.4789 H         1 LIG         0.0600 
     29 HXT1        5.4412   -2.1860   20.9959 H         1 LIG         0.0600 
     30 HXT2        6.9994   -2.8605   21.4088 H         1 LIG         0.0600 
     31 HXT3        6.1477   -1.8317   22.5685 H         1 LIG         0.0600 
     32 HC16        5.1423    0.3848   22.3374 H         1 LIG         0.2009 
     33 HC15        3.1828    1.8309   22.6951 H         1 LIG         0.1382 
     34 HC14        2.1357    3.0307   20.7890 H         1 LIG         0.1414 
     35 HC13        3.0639    2.7833   18.4988 H         1 LIG         0.1598 
     36 HC11        4.7431    1.7619   16.9717 H         1 LIG         0.0566 
     37 HC10        7.6881   -0.7636   18.3482 H         1 LIG         0.0456 
@<TRIPOS>BOND
     1    1    2 1    
     2    2    3 ar   
     3    2    6 ar   
     4    3    4 ar   
     5    3   23 1    
     6    4    5 ar   
     7    4   24 1    
     8    5    7 ar   
     9    5   25 1    
    10    6    7 ar   
    11    6   26 1    
    12    7    8 1    
    13    8    9 1    
    14    8   27 1    
    15    8   28 1    
    16    9   10 2    
    17    9   11 am   BACKBONE|DICT|INTERRES
    18   11   12 1    
    19   11   13 1    
    20   12   29 1    
    21   12   30 1    
    22   12   31 1    
    23   13   14 ar   
    24   13   22 ar   
    25   14   15 ar   
    26   14   19 ar   
    27   15   16 ar   
    28   15   32 1    
    29   16   17 ar   
    30   16   33 1    
    31   17   18 ar   
    32   17   34 1    
    33   18   19 ar   
    34   18   35 1    
    35   19   20 ar   
    36   20   21 ar   
    37   20   36 1    
    38   21   22 ar   
    39   22   37 1    
@<TRIPOS>SUBSTRUCTURE
     1 LIG         1 GROUP             0 A     ****    0 ROOT    
