@<TRIPOS>MOLECULE
Mpro-x11507_ligand
38   40    1
SMALL
USER_CHARGES


@<TRIPOS>ATOM
      1 O           8.5519    1.3164   21.1477 O.2       1 LIG        -0.5000 
      2 C6          8.1695    0.1710   21.3991 C.2       1 LIG         0.5000 
      3 C5          8.8146   -0.6425   22.5274 C.3       1 LIG        -0.0050 
      4 C4         10.3086   -0.3827   22.6221 C.ar      1 LIG        -0.1150 
      5 C3         10.7919    0.7664   23.2823 C.ar      1 LIG        -0.1150 
      6 C2         12.1753    1.0247   23.3349 C.ar      1 LIG        -0.1150 
      7 C1         13.0781    0.1376   22.7199 C.ar      1 LIG        -0.1150 
      8 C18        11.2195   -1.2833   22.0357 C.ar      1 LIG        -0.1150 
      9 C          12.6005   -1.0129   22.0654 C.ar      1 LIG         0.1800 
     10 CL         13.7025   -2.0806   21.2839 Cl        1 LIG        -0.1800 
     11 N           7.1839   -0.4332   20.7182 N.am      1 LIG        -0.3850 
     12 C7          6.4009    0.2108   19.7320 C.ar      1 LIG        -0.2070 
     13 C11         5.3528    1.1121   20.0584 C.ar      1 LIG         0.2920 
     14 C10         4.6717    1.7270   18.9867 C.ar      1 LIG        -0.4470 
     15 C9          5.0433    1.4198   17.6668 C.ar      1 LIG         0.4730 
     16 N1          6.0182    0.5439   17.3602 N.ar      1 LIG        -0.6780 
     17 C8          6.6762   -0.0472   18.3760 C.ar      1 LIG         0.4730 
     18 C12         4.9556    1.4315   21.4403 C.ar      1 LIG         0.0000 
     19 C17         4.8218    2.7765   21.8505 C.ar      1 LIG        -0.1150 
     20 C16         4.4231    3.0938   23.1621 C.ar      1 LIG        -0.1150 
     21 C15         4.1511    2.0650   24.0831 C.ar      1 LIG        -0.1150 
     22 C14         4.2818    0.7205   23.6889 C.ar      1 LIG        -0.1150 
     23 C13         4.6784    0.4096   22.3755 C.ar      1 LIG        -0.1150 
     24 H5_1        8.6375   -1.7084   22.3731 H         1 LIG         0.0600 
     25 H5_2        8.3355   -0.3760   23.4702 H         1 LIG         0.0600 
     26 HC3        10.0962    1.4602   23.7293 H         1 LIG         0.1150 
     27 HC2        12.5431    1.9128   23.8248 H         1 LIG         0.1150 
     28 HC1        14.1369    0.3462   22.7415 H         1 LIG         0.1150 
     29 HC18       10.8584   -2.1740   21.5440 H         1 LIG         0.1150 
     30 HN          6.9700   -1.3979   20.9270 H         1 LIG         0.3000 
     31 HC10        3.8772    2.4376   19.1655 H         1 LIG         0.1550 
     32 HC9         4.5548    1.9038   16.8376 H         1 LIG         0.0120 
     33 HC8         7.4678   -0.7263   18.0982 H         1 LIG         0.0120 
     34 HC17        5.0277    3.5767   21.1538 H         1 LIG         0.1150 
     35 HC16        4.3268    4.1269   23.4618 H         1 LIG         0.1150 
     36 HC15        3.8446    2.3063   25.0890 H         1 LIG         0.1150 
     37 HC14        4.0767   -0.0709   24.3948 H         1 LIG         0.1150 
     38 HC13        4.7678   -0.6260   22.0831 H         1 LIG         0.1150 
@<TRIPOS>BOND
     1    1    2 2    
     2    2    3 1    
     3    2   11 am   BACKBONE|DICT|INTERRES
     4    3    4 1    
     5    3   24 1    
     6    3   25 1    
     7    4    5 ar   
     8    4    8 ar   
     9    5    6 ar   
    10    5   26 1    
    11    6    7 ar   
    12    6   27 1    
    13    7    9 ar   
    14    7   28 1    
    15    8    9 ar   
    16    8   29 1    
    17    9   10 1    
    18   11   12 1    
    19   11   30 1    
    20   12   13 ar   
    21   12   17 ar   
    22   13   14 ar   
    23   13   18 1    
    24   14   15 ar   
    25   14   31 1    
    26   15   16 ar   
    27   15   32 1    
    28   16   17 ar   
    29   17   33 1    
    30   18   19 ar   
    31   18   23 ar   
    32   19   20 ar   
    33   19   34 1    
    34   20   21 ar   
    35   20   35 1    
    36   21   22 ar   
    37   21   36 1    
    38   22   23 ar   
    39   22   37 1    
    40   23   38 1    
@<TRIPOS>SUBSTRUCTURE
     1 LIG         1 GROUP             0 A     ****    0 ROOT    
