@<TRIPOS>MOLECULE
Mpro-x11458_ligand
36   38    1
SMALL
USER_CHARGES


@<TRIPOS>ATOM
      1 O           8.6866    0.6107   21.2490 O.2       1 LIG        -0.5000 
      2 C           8.1337   -0.4631   21.5066 C.2       1 LIG         0.5000 
      3 N           7.1053   -0.9350   20.7936 N.am      1 LIG        -0.3850 
      4 C10         6.4247   -0.1681   19.8260 C.ar      1 LIG        -0.4271 
      5 C18         5.3003    0.6185   20.1654 C.ar      1 LIG         0.6486 
      6 C17         4.7880    0.6718   21.4803 C.ar      1 LIG        -0.4445 
      7 C16         3.6770    1.4838   21.7700 C.ar      1 LIG        -0.0460 
      8 C15         3.0732    2.2503   20.7547 C.ar      1 LIG        -0.1533 
      9 C14         3.5779    2.2051   19.4427 C.ar      1 LIG        -0.1818 
     10 C13         4.6824    1.3835   19.1479 C.ar      1 LIG        -0.2505 
     11 C12         5.1979    1.3030   17.8437 C.ar      1 LIG         0.3967 
     12 N1          6.2627    0.5443   17.5235 N.ar      1 LIG        -0.6841 
     13 C11         6.8663   -0.1697   18.4902 C.ar      1 LIG         0.4845 
     14 C1          8.6007   -1.3417   22.6759 C.3       1 LIG        -0.0050 
     15 C2         10.0322   -1.0026   23.0255 C.ar      1 LIG        -0.1150 
     16 C9         11.0576   -1.5125   22.2157 C.ar      1 LIG        -0.1150 
     17 C6         12.3739   -1.0584   22.3781 C.ar      1 LIG         0.1164 
     18 C7         13.3769   -1.5456   21.4648 C.1       1 LIG        -0.1064 
     19 C8         14.1211   -2.0137   20.6235 C.1       1 LIG        -0.2100 
     20 C5         12.6828   -0.1188   23.3762 C.ar      1 LIG        -0.1150 
     21 C4         11.6657    0.3450   24.2298 C.ar      1 LIG        -0.1150 
     22 C3         10.3385   -0.0971   24.0622 C.ar      1 LIG        -0.1150 
     23 HN          6.7045   -1.8286   21.0547 H         1 LIG         0.3000 
     24 HC17        5.2373    0.0967   22.2759 H         1 LIG         0.2009 
     25 HC16        3.2877    1.5154   22.7752 H         1 LIG         0.1382 
     26 HC15        2.2228    2.8750   20.9848 H         1 LIG         0.1414 
     27 HC14        3.1172    2.8026   18.6682 H         1 LIG         0.1598 
     28 HC12        4.7688    1.8813   17.0396 H         1 LIG         0.0566 
     29 HC11        7.7281   -0.7467   18.1880 H         1 LIG         0.0456 
     30 H1_1        8.5338   -2.3964   22.4046 H         1 LIG         0.0600 
     31 H1_2        7.9487   -1.1845   23.5353 H         1 LIG         0.0600 
     32 HC9        10.8152   -2.2100   21.4288 H         1 LIG         0.1150 
     33 HC8        14.7649   -2.4562   19.9020 H         1 LIG         0.2000 
     34 HC5        13.6926    0.2481   23.4853 H         1 LIG         0.1150 
     35 HC4        11.8975    1.0808   24.9784 H         1 LIG         0.1150 
     36 HC3         9.5557    0.3049   24.6870 H         1 LIG         0.1150 
@<TRIPOS>BOND
     1    1    2 2    
     2    2    3 am   BACKBONE|DICT|INTERRES
     3    2   14 1    
     4    3    4 1    
     5    3   23 1    
     6    4    5 ar   
     7    4   13 ar   
     8    5    6 ar   
     9    5   10 ar   
    10    6    7 ar   
    11    6   24 1    
    12    7    8 ar   
    13    7   25 1    
    14    8    9 ar   
    15    8   26 1    
    16    9   10 ar   
    17    9   27 1    
    18   10   11 ar   
    19   11   12 ar   
    20   11   28 1    
    21   12   13 ar   
    22   13   29 1    
    23   14   15 1    
    24   14   30 1    
    25   14   31 1    
    26   15   16 ar   
    27   15   22 ar   
    28   16   17 ar   
    29   16   32 1    
    30   17   18 1    
    31   17   20 ar   
    32   18   19 3    
    33   19   33 1    
    34   20   21 ar   
    35   20   34 1    
    36   21   22 ar   
    37   21   35 1    
    38   22   36 1    
@<TRIPOS>SUBSTRUCTURE
     1 LIG         1 GROUP             0 A     ****    0 ROOT    
