@<TRIPOS>MOLECULE
Mpro-x11498_ligand
39   42    1
SMALL
USER_CHARGES


@<TRIPOS>ATOM
      1 O1          8.9656    0.8738   21.1071 O.2       1 LIG        -0.5000 
      2 C7          8.4980   -0.2082   21.4708 C.2       1 LIG         0.5000 
      3 C6          9.0721   -0.9527   22.6933 C.3       1 LIG         0.0550 
      4 C5          8.3735   -0.5212   23.9922 C.3       1 LIG        -0.1200 
      5 C4          8.8413    0.8771   24.4226 C.3       1 LIG         0.1400 
      6 O          10.2489    0.9312   24.6306 O.3       1 LIG        -0.2850 
      7 C17        10.5592   -0.6831   22.8030 C.ar      1 LIG        -0.1150 
      8 C3         11.0521    0.2803   23.7189 C.ar      1 LIG         0.0850 
      9 C2         12.4291    0.5680   23.7268 C.ar      1 LIG        -0.1150 
     10 C1         13.3107   -0.0965   22.8538 C.ar      1 LIG        -0.1150 
     11 C18        11.4501   -1.3904   21.9768 C.ar      1 LIG        -0.1150 
     12 C          12.8203   -1.0876   21.9853 C.ar      1 LIG         0.1800 
     13 CL         13.8800   -1.9270   20.9210 Cl        1 LIG        -0.1800 
     14 N           7.4804   -0.8074   20.8356 N.am      1 LIG        -0.3850 
     15 C8          6.6605   -0.1385   19.8987 C.ar      1 LIG        -0.4271 
     16 C16         5.4982    0.5572   20.3009 C.ar      1 LIG         0.6486 
     17 C15         5.0574    0.5765   21.6430 C.ar      1 LIG        -0.4445 
     18 C14         3.9168    1.3177   21.9995 C.ar      1 LIG        -0.0460 
     19 C13         3.2172    2.0547   21.0260 C.ar      1 LIG        -0.1533 
     20 C12         3.6396    2.0333   19.6849 C.ar      1 LIG        -0.1818 
     21 C11         4.7680    1.2721   19.3209 C.ar      1 LIG        -0.2505 
     22 C10         5.1978    1.2085   17.9836 C.ar      1 LIG         0.3967 
     23 N1          6.2833    0.5110   17.5925 N.ar      1 LIG        -0.6841 
     24 C9          7.0050   -0.1328   18.5333 C.ar      1 LIG         0.4845 
     25 HC6         8.9338   -2.0245   22.5466 H         1 LIG         0.0600 
     26 H5_1        8.6120   -1.2331   24.7839 H         1 LIG         0.0600 
     27 H5_2        7.2893   -0.5404   23.8816 H         1 LIG         0.0600 
     28 H4_1        8.3462    1.1632   25.3503 H         1 LIG         0.0300 
     29 H4_2        8.5653    1.6301   23.6850 H         1 LIG         0.0300 
     30 HC2        12.8076    1.3128   24.4032 H         1 LIG         0.1150 
     31 HC1        14.3609    0.1478   22.8607 H         1 LIG         0.1150 
     32 HC18       11.0725   -2.1625   21.3274 H         1 LIG         0.1150 
     33 HN          7.1280   -1.6711   21.2272 H         1 LIG         0.3000 
     34 HC15        5.5815    0.0297   22.4104 H         1 LIG         0.2009 
     35 HC14        3.5815    1.3255   23.0246 H         1 LIG         0.1382 
     36 HC13        2.3520    2.6346   21.3114 H         1 LIG         0.1414 
     37 HC12        3.1006    2.6008   18.9391 H         1 LIG         0.1598 
     38 HC10        4.6704    1.7387   17.2050 H         1 LIG         0.0566 
     39 HC9         7.8897   -0.6488   18.1901 H         1 LIG         0.0456 
@<TRIPOS>BOND
     1    1    2 2    
     2    2    3 1    
     3    2   14 am   BACKBONE|DICT|INTERRES
     4    3    4 1    
     5    3    7 1    
     6    3   25 1    
     7    4    5 1    
     8    4   26 1    
     9    4   27 1    
    10    5    6 1    
    11    5   28 1    
    12    5   29 1    
    13    6    8 1    
    14    7    8 ar   
    15    7   11 ar   
    16    8    9 ar   
    17    9   10 ar   
    18    9   30 1    
    19   10   12 ar   
    20   10   31 1    
    21   11   12 ar   
    22   11   32 1    
    23   12   13 1    
    24   14   15 1    
    25   14   33 1    
    26   15   16 ar   
    27   15   24 ar   
    28   16   17 ar   
    29   16   21 ar   
    30   17   18 ar   
    31   17   34 1    
    32   18   19 ar   
    33   18   35 1    
    34   19   20 ar   
    35   19   36 1    
    36   20   21 ar   
    37   20   37 1    
    38   21   22 ar   
    39   22   23 ar   
    40   22   38 1    
    41   23   24 ar   
    42   24   39 1    
@<TRIPOS>SUBSTRUCTURE
     1 LIG         1 GROUP             0 A     ****    0 ROOT    
