@<TRIPOS>MOLECULE
Mpro-x11723_ligand
43   45    1
SMALL
USER_CHARGES


@<TRIPOS>ATOM
      1 O2          8.5934    0.5411   20.8135 O.2       1 LIG        -0.5000 
      2 C10         7.9882   -0.4991   21.0839 C.2       1 LIG         0.5000 
      3 N1          6.7927   -0.8027   20.5654 N.am      1 LIG        -0.3850 
      4 C11         6.1305   -0.0016   19.6159 C.ar      1 LIG        -0.2070 
      5 C15         5.0106    0.7820   19.9665 C.ar      1 LIG         0.1770 
      6 C16         4.4815    0.8098   21.3869 C.3       1 LIG        -0.0650 
      7 C14         4.4075    1.5664   18.9635 C.ar      1 LIG        -0.4470 
      8 C13         4.9322    1.5083   17.6589 C.ar      1 LIG         0.4730 
      9 N2          5.9938    0.7508   17.3177 N.ar      1 LIG        -0.6780 
     10 C12         6.5817    0.0180   18.2839 C.ar      1 LIG         0.4730 
     11 C9          8.5481   -1.5212   22.0774 C.3       1 LIG        -0.0050 
     12 C8          9.8675   -1.0664   22.6559 C.ar      1 LIG        -0.1150 
     13 C7         11.0722   -1.5417   22.1180 C.ar      1 LIG        -0.1150 
     14 C6         12.2922   -1.0553   22.6020 C.ar      1 LIG         0.1800 
     15 CL         13.7462   -1.6563   21.9167 Cl        1 LIG        -0.1800 
     16 C5         12.3151   -0.1098   23.6464 C.ar      1 LIG        -0.1150 
     17 C17         9.8851   -0.1507   23.7226 C.ar      1 LIG        -0.1150 
     18 C4         11.1122    0.3241   24.2431 C.ar      1 LIG         0.0850 
     19 O1         11.2066    1.1930   25.3088 O.3       1 LIG        -0.2850 
     20 C3         10.0119    1.7563   25.8524 C.3       1 LIG         0.2550 
     21 C2          9.2970    0.7583   26.7142 C.2       1 LIG         0.5486 
     22 O           9.9413   -0.3452   27.1703 O.3       1 LIG        -0.1975 
     23 N           9.0005   -1.0474   27.9397 N.2       1 LIG        -0.4268 
     24 N3          8.0328    0.8441   27.1176 N.2       1 LIG        -0.7040 
     25 C1          7.9143   -0.2874   27.8611 C.2       1 LIG         0.5497 
     26 C           6.6502   -0.6609   28.5531 C.3       1 LIG        -0.0650 
     27 HN1         6.3131   -1.6253   20.9081 H         1 LIG         0.3000 
     28 H161        3.5528    1.3775   21.4518 H         1 LIG         0.0600 
     29 H162        4.2883   -0.1995   21.7488 H         1 LIG         0.0600 
     30 H163        5.2131    1.2722   22.0494 H         1 LIG         0.0600 
     31 HC14        3.5603    2.2002   19.1799 H         1 LIG         0.1550 
     32 HC13        4.5001    2.0981   16.8673 H         1 LIG         0.0120 
     33 HC12        7.4373   -0.5725   17.9913 H         1 LIG         0.0120 
     34 H9_1        8.6676   -2.4864   21.5840 H         1 LIG         0.0600 
     35 H9_2        7.8394   -1.6588   22.8939 H         1 LIG         0.0600 
     36 HC7        11.0640   -2.2755   21.3307 H         1 LIG         0.1150 
     37 HC5        13.2621    0.2528   24.0179 H         1 LIG         0.1150 
     38 HC17        8.9352    0.1727   24.1193 H         1 LIG         0.1150 
     39 H3_1        9.3447    2.1305   25.0788 H         1 LIG         0.0300 
     40 H3_2       10.2737    2.6158   26.4627 H         1 LIG         0.0300 
     41 HXT1        5.8354   -0.0053   28.2454 H         1 LIG         0.0600 
     42 HXT2        6.3755   -1.6870   28.3085 H         1 LIG         0.0600 
     43 HXT3        6.7730   -0.5745   29.6322 H         1 LIG         0.0600 
@<TRIPOS>BOND
     1    1    2 2    
     2    2    3 am   BACKBONE|DICT|INTERRES
     3    2   11 1    
     4    3    4 1    
     5    3   27 1    
     6    4    5 ar   
     7    4   10 ar   
     8    5    6 1    
     9    5    7 ar   
    10    6   28 1    
    11    6   29 1    
    12    6   30 1    
    13    7    8 ar   
    14    7   31 1    
    15    8    9 ar   
    16    8   32 1    
    17    9   10 ar   
    18   10   33 1    
    19   11   12 1    
    20   11   34 1    
    21   11   35 1    
    22   12   13 ar   
    23   12   17 ar   
    24   13   14 ar   
    25   13   36 1    
    26   14   15 1    
    27   14   16 ar   
    28   16   18 ar   
    29   16   37 1    
    30   17   18 ar   
    31   17   38 1    
    32   18   19 1    
    33   19   20 1    
    34   20   21 1    
    35   20   39 1    
    36   20   40 1    
    37   21   22 1    
    38   21   24 2    
    39   22   23 1    
    40   23   25 2    
    41   24   25 1    
    42   25   26 1    
    43   26   41 1    
    44   26   42 1    
    45   26   43 1    
@<TRIPOS>SUBSTRUCTURE
     1 LIG         1 GROUP             0 A     ****    0 ROOT    
