@<TRIPOS>MOLECULE
Mpro-x2910_ligand
43   45    1
SMALL
USER_CHARGES


@<TRIPOS>ATOM
      1 O3          6.2502    1.0940   16.8045 O.2       1 LIG        -0.5000 
      2 C12         5.7599    0.8602   17.9012 C.ar      1 LIG         0.5567 
      3 C11         6.1963   -0.2244   18.7817 C.ar      1 LIG        -0.1717 
      4 N1          4.7601    1.6308   18.3658 N.pl3     1 LIG        -0.3850 
      5 C13         4.1422    1.4892   19.6267 C.ar      1 LIG         0.0850 
      6 C18         4.5776    0.4747   20.5068 C.ar      1 LIG         0.0000 
      7 C17         3.9792    0.3794   21.7849 C.ar      1 LIG        -0.1150 
      8 C16         2.9383    1.2549   22.1483 C.ar      1 LIG        -0.1150 
      9 C15         2.4916    2.2388   21.2453 C.ar      1 LIG        -0.1150 
     10 C14         3.0996    2.3634   19.9839 C.ar      1 LIG        -0.1150 
     11 C10         5.6524   -0.4083   20.0044 C.ar      1 LIG        -0.0567 
     12 C9          6.0193   -1.5752   20.7930 C.2       1 LIG         0.5567 
     13 O2          5.2759   -2.5272   21.0256 O.2       1 LIG        -0.5000 
     14 N           7.2702   -1.5105   21.2650 N.am      1 LIG        -0.5000 
     15 C8          7.8558   -2.5216   22.1365 C.3       1 LIG         0.0800 
     16 C7          9.3732   -2.3830   22.1805 C.3       1 LIG         0.1400 
     17 O1          9.7018   -1.1333   22.7651 O.3       1 LIG        -0.2850 
     18 C6         11.0140   -0.7208   22.7080 C.ar      1 LIG         0.0850 
     19 C1         11.2879    0.5940   23.1447 C.ar      1 LIG         0.0850 
     20 O          10.2173    1.3397   23.5914 O.3       1 LIG        -0.2850 
     21 C          10.4309    2.7157   23.8614 C.3       1 LIG         0.1100 
     22 C5         12.0685   -1.5348   22.2255 C.ar      1 LIG        -0.1150 
     23 C4         13.3790   -1.0367   22.1553 C.ar      1 LIG        -0.1150 
     24 C3         13.6502    0.2677   22.5990 C.ar      1 LIG        -0.1150 
     25 C2         12.6168    1.0809   23.0932 C.ar      1 LIG        -0.1150 
     26 HC11        6.9418   -0.9162   18.4207 H         1 LIG         0.1150 
     27 HN1         4.4534    2.4021   17.7858 H         1 LIG         0.3000 
     28 HC17        4.2981   -0.3674   22.4949 H         1 LIG         0.1150 
     29 HC16        2.4783    1.1674   23.1206 H         1 LIG         0.1150 
     30 HC15        1.6890    2.9044   21.5264 H         1 LIG         0.1150 
     31 HC14        2.7683    3.1263   19.2947 H         1 LIG         0.1150 
     32 HN          7.8296   -0.6953   21.0479 H         1 LIG         0.3000 
     33 H8_1        7.6032   -3.5190   21.7739 H         1 LIG         0.0600 
     34 H8_2        7.4418   -2.4277   23.1397 H         1 LIG         0.0600 
     35 H7_1        9.7637   -2.4603   21.1666 H         1 LIG         0.0300 
     36 H7_2        9.8004   -3.1908   22.7760 H         1 LIG         0.0300 
     37 HXT1        9.4865    3.1787   24.1475 H         1 LIG         0.0300 
     38 HXT2       11.1300    2.8546   24.6851 H         1 LIG         0.0300 
     39 HXT3       10.8025    3.2401   22.9793 H         1 LIG         0.0300 
     40 HC5        11.8936   -2.5431   21.8907 H         1 LIG         0.1150 
     41 HC4        14.1704   -1.6600   21.7686 H         1 LIG         0.1150 
     42 HC3        14.6496    0.6636   22.5389 H         1 LIG         0.1150 
     43 HC2        12.8707    2.0801   23.4123 H         1 LIG         0.1150 
@<TRIPOS>BOND
     1    1    2 2    
     2    2    3 ar   
     3    2    4 ar   
     4    3   11 ar   
     5    3   26 1    
     6    4    5 ar   
     7    4   27 1    
     8    5    6 ar   
     9    5   10 ar   
    10    6    7 ar   
    11    6   11 ar   
    12    7    8 ar   
    13    7   28 1    
    14    8    9 ar   
    15    8   29 1    
    16    9   10 ar   
    17    9   30 1    
    18   10   31 1    
    19   11   12 1    
    20   12   13 2    
    21   12   14 am   BACKBONE|DICT|INTERRES
    22   14   15 1    
    23   14   32 1    
    24   15   16 1    
    25   15   33 1    
    26   15   34 1    
    27   16   17 1    
    28   16   35 1    
    29   16   36 1    
    30   17   18 1    
    31   18   19 ar   
    32   18   22 ar   
    33   19   20 1    
    34   19   25 ar   
    35   20   21 1    
    36   21   37 1    
    37   21   38 1    
    38   21   39 1    
    39   22   23 ar   
    40   22   40 1    
    41   23   24 ar   
    42   23   41 1    
    43   24   25 ar   
    44   24   42 1    
    45   25   43 1    
@<TRIPOS>SUBSTRUCTURE
     1 LIG         1 GROUP             0 A     ****    0 ROOT    
