@<TRIPOS>MOLECULE
Mpro-x10942_ligand
37   39    1
SMALL
USER_CHARGES


@<TRIPOS>ATOM
      1 N           6.4757    0.7230   17.7097 N.ar      1 LIG        -0.6780 
      2 C1          5.4742    0.7733   20.3461 C.ar      1 LIG         0.1770 
      3 C11        12.4495    0.6452   23.8908 C.ar      1 LIG        -0.1150 
      4 O1          9.0529    1.0258   21.2258 O.2       1 LIG        -0.5000 
      5 C8          8.3432   -0.2360   24.1685 C.3       1 LIG        -0.1200 
      6 C2          4.7907    1.4248   19.3022 C.ar      1 LIG        -0.4470 
      7 C6          8.5011    0.0035   21.6408 C.2       1 LIG         0.5000 
      8 C5          6.6836    0.1074   20.0417 C.ar      1 LIG        -0.2070 
      9 C4          7.1354    0.1041   18.7093 C.ar      1 LIG         0.4730 
     10 C10        11.0629    0.4166   23.8922 C.ar      1 LIG         0.0850 
     11 C13        12.7649   -1.0156   22.1407 C.ar      1 LIG         0.1800 
     12 C9          8.8844    1.1418   24.5788 C.3       1 LIG         0.1400 
     13 C12        13.2992   -0.0508   23.0124 C.ar      1 LIG        -0.1150 
     14 C14        11.3826   -1.2642   22.1402 C.ar      1 LIG        -0.1150 
     15 C           4.9346    0.8393   21.7621 C.3       1 LIG         0.2343 
     16 N1          7.4314   -0.5402   21.0458 N.am      1 LIG        -0.3850 
     17 O           5.7142    1.6731   22.5904 O.3       1 LIG        -0.6333 
     18 O2         10.2918    1.1144   24.7980 O.3       1 LIG        -0.2850 
     19 C7          9.0282   -0.7336   22.8858 C.3       1 LIG         0.0550 
     20 C3          5.3361    1.3748   18.0081 C.ar      1 LIG         0.4730 
     21 C15        10.5269   -0.5302   22.9851 C.ar      1 LIG        -0.1150 
     22 CL         13.7964   -1.8933   21.0775 Cl        1 LIG        -0.1800 
     23 HC11       12.8571    1.3769   24.5621 H         1 LIG         0.1150 
     24 H8_1        7.2602   -0.2045   24.0456 H         1 LIG         0.0600 
     25 H8_2        8.5351   -0.9442   24.9753 H         1 LIG         0.0600 
     26 HC2         3.8809    1.9750   19.4891 H         1 LIG         0.1550 
     27 HC4         8.0568   -0.3930   18.4407 H         1 LIG         0.0120 
     28 H9_1        8.3995    1.4676   25.4994 H         1 LIG         0.0300 
     29 H9_2        8.6529    1.8968   23.8267 H         1 LIG         0.0300 
     30 HC12       14.3591    0.1494   23.0134 H         1 LIG         0.1150 
     31 HC14       10.9684   -2.0099   21.4807 H         1 LIG         0.1150 
     32 HXT1        4.9086   -0.1636   22.1877 H         1 LIG         0.0480 
     33 HXT2        3.9080    1.2057   21.7537 H         1 LIG         0.0480 
     34 HN1         7.0079   -1.3472   21.4887 H         1 LIG         0.3000 
     35 HO          5.3527    1.6576   23.4661 H         1 LIG         0.4180 
     36 HC7         8.8377   -1.8007   22.7673 H         1 LIG         0.0600 
     37 HC3         4.8639    1.8945   17.1906 H         1 LIG         0.0120 
@<TRIPOS>BOND
     1    1    9 ar   
     2    1   20 ar   
     3    2    6 ar   
     4    2    8 ar   
     5    2   15 1    
     6    3   10 ar   
     7    3   13 ar   
     8    3   23 1    
     9    4    7 2    
    10    5   12 1    
    11    5   19 1    
    12    5   24 1    
    13    5   25 1    
    14    6   20 ar   
    15    6   26 1    
    16    7   16 am   BACKBONE|DICT|INTERRES
    17    7   19 1    
    18    8    9 ar   
    19    8   16 1    
    20    9   27 1    
    21   10   18 1    
    22   10   21 ar   
    23   11   13 ar   
    24   11   14 ar   
    25   11   22 1    
    26   12   18 1    
    27   12   28 1    
    28   12   29 1    
    29   13   30 1    
    30   14   21 ar   
    31   14   31 1    
    32   15   17 1    
    33   15   32 1    
    34   15   33 1    
    35   16   34 1    
    36   17   35 1    
    37   19   21 1    
    38   19   36 1    
    39   20   37 1    
@<TRIPOS>SUBSTRUCTURE
     1 LIG         1 GROUP             0 A     ****    0 ROOT    
