@<TRIPOS>MOLECULE
Mpro-x10871_ligand
51   54    1
SMALL
USER_CHARGES


@<TRIPOS>ATOM
      1 S          13.5837   -1.7962   22.6438 S.3       1 LIG         0.0328 
      2 N           8.1273   -4.2267   26.1697 N.am      1 LIG        -0.3850 
      3 N3          7.3693   -0.1715   18.6858 N.2       1 LIG         0.0816 
      4 N2          6.9390   -0.0345   19.9689 N.pl3     1 LIG         0.0636 
      5 C1          7.9436   -5.7010   28.0805 C.3       1 LIG        -0.1200 
      6 C11        12.7300   -0.0247   24.3065 C.2       1 LIG        -0.0738 
      7 C18         3.6242    2.3352   19.3983 C.ar      1 LIG        -0.1150 
      8 O1          9.0182    1.4030   20.9529 O.2       1 LIG        -0.5000 
      9 C8          8.1249   -1.7551   25.7532 C.ar      1 LIG        -0.1150 
     10 C2          7.7417   -4.3200   27.4516 C.2       1 LIG         0.5000 
     11 C16         5.5764    1.0474   18.7003 C.ar      1 LIG         0.2502 
     12 C6          8.9582   -0.9738   23.5940 C.ar      1 LIG        -0.0383 
     13 C5          9.1088   -2.3093   23.1678 C.ar      1 LIG        -0.1150 
     14 C4          8.7492   -3.3580   24.0242 C.ar      1 LIG        -0.1150 
     15 C13        12.1080   -0.9524   22.2832 C.2       1 LIG        -0.3255 
     16 C10        11.7836   -0.0271   23.2444 C.2       1 LIG        -0.0677 
     17 C20         4.9386    1.1518   21.0808 C.ar      1 LIG        -0.1150 
     18 C17         4.4877    1.8814   18.3804 C.ar      1 LIG        -0.1150 
     19 C9         10.5579    0.8453   23.2185 C.3       1 LIG         0.0650 
     20 C12        13.7373   -0.9343   24.1431 C.2       1 LIG        -0.3255 
     21 C19         3.8430    1.9681   20.7434 C.ar      1 LIG        -0.1150 
     22 C14         8.7647    0.3803   21.5908 C.2       1 LIG         0.5000 
     23 C           6.7932   -6.1330   28.9985 C.3       1 LIG        -0.1800 
     24 N1          9.3796    0.0940   22.7617 N.am      1 LIG        -0.0317 
     25 O           7.2394   -3.4082   28.1088 O.2       1 LIG        -0.5000 
     26 C7          8.4510   -0.6996   24.8808 C.ar      1 LIG        -0.1150 
     27 C3          8.2951   -3.0959   25.3319 C.ar      1 LIG         0.0850 
     28 C15         7.7078   -0.6023   21.0487 C.3       1 LIG         0.0025 
     29 C21         5.7862    0.7126   20.0515 C.ar      1 LIG        -0.0957 
     30 N4          6.5585    0.4798   17.9161 N.2       1 LIG        -0.4222 
     31 HN          8.4496   -5.0946   25.7552 H         1 LIG         0.3000 
     32 H1_1        8.8793   -5.6831   28.6365 H         1 LIG         0.0600 
     33 H1_2        8.0673   -6.4481   27.2967 H         1 LIG         0.0600 
     34 HC11       12.6239    0.6260   25.1532 H         1 LIG         0.1211 
     35 HC18        2.7963    2.9780   19.1415 H         1 LIG         0.1150 
     36 HC8         7.7861   -1.5060   26.7458 H         1 LIG         0.1150 
     37 HC5         9.5225   -2.5396   22.1970 H         1 LIG         0.1150 
     38 HC4         8.8823   -4.3699   23.6766 H         1 LIG         0.1150 
     39 HC13       11.5567   -1.2036   21.3909 H         1 LIG         0.2618 
     40 HC20        5.1259    0.8775   22.1082 H         1 LIG         0.1150 
     41 HC17        4.3320    2.1859   17.3576 H         1 LIG         0.1150 
     42 H9_1       10.7604    1.7254   22.6072 H         1 LIG         0.0600 
     43 H9_2       10.3553    1.2418   24.2145 H         1 LIG         0.0600 
     44 HC12       14.5547   -1.1529   24.8132 H         1 LIG         0.2618 
     45 HC19        3.1783    2.3268   21.5147 H         1 LIG         0.1150 
     46 HXT1        6.9827   -7.1243   29.4109 H         1 LIG         0.0600 
     47 HXT2        6.6698   -5.4487   29.8368 H         1 LIG         0.0600 
     48 HXT3        5.8483   -6.1751   28.4564 H         1 LIG         0.0600 
     49 HC7         8.3417    0.3214   25.2171 H         1 LIG         0.1150 
     50 H151        8.2013   -1.5024   20.6882 H         1 LIG         0.0600 
     51 H152        7.0080   -0.8985   21.8314 H         1 LIG         0.0600 
@<TRIPOS>BOND
     1    1   15 1    
     2    1   20 1    
     3    2   10 am   BACKBONE|DICT|INTERRES
     4    2   27 1    
     5    2   31 1    
     6    3    4 ar   
     7    3   30 ar   
     8    4   28 1    
     9    4   29 ar   
    10    5   10 1    
    11    5   23 1    
    12    5   32 1    
    13    5   33 1    
    14    6   16 1    
    15    6   20 2    
    16    6   34 1    
    17    7   18 ar   
    18    7   21 ar   
    19    7   35 1    
    20    8   22 2    
    21    9   26 ar   
    22    9   27 ar   
    23    9   36 1    
    24   10   25 2    
    25   11   18 ar   
    26   11   29 ar   
    27   11   30 ar   
    28   12   13 ar   
    29   12   24 1    
    30   12   26 ar   
    31   13   14 ar   
    32   13   37 1    
    33   14   27 ar   
    34   14   38 1    
    35   15   16 2    
    36   15   39 1    
    37   16   19 1    
    38   17   21 ar   
    39   17   29 ar   
    40   17   40 1    
    41   18   41 1    
    42   19   24 1    
    43   19   42 1    
    44   19   43 1    
    45   20   44 1    
    46   21   45 1    
    47   22   24 am   BACKBONE|DICT|INTERRES
    48   22   28 1    
    49   23   46 1    
    50   23   47 1    
    51   23   48 1    
    52   26   49 1    
    53   28   50 1    
    54   28   51 1    
@<TRIPOS>SUBSTRUCTURE
     1 LIG         1 GROUP             0 A     ****    0 ROOT    
