@<TRIPOS>MOLECULE
Mpro-x11368_ligand
31   32    1
SMALL
USER_CHARGES


@<TRIPOS>ATOM
      1 BR         13.7282   -2.0116   21.1562 Br        1 LIG        -0.2000 
      2 C12        12.4834   -1.0560   22.2193 C.ar      1 LIG         0.2000 
      3 C11        12.9058   -0.0185   23.0724 C.ar      1 LIG        -0.1150 
      4 C10        11.9607    0.6800   23.8479 C.ar      1 LIG        -0.1150 
      5 C9         10.5928    0.3591   23.7458 C.ar      1 LIG        -0.1150 
      6 C13        11.1236   -1.3887   22.1366 C.ar      1 LIG        -0.1150 
      7 C8         10.1726   -0.6617   22.8711 C.ar      1 LIG        -0.1150 
      8 C7          8.7009   -0.9329   22.6455 C.3       1 LIG        -0.0050 
      9 C6          8.1743   -0.0960   21.4729 C.2       1 LIG         0.5000 
     10 O           8.7743    0.9083   21.0810 O.2       1 LIG        -0.5000 
     11 N1          7.0284   -0.5161   20.9254 N.am      1 LIG        -0.3850 
     12 C5          6.3679    0.1497   19.8750 C.ar      1 LIG        -0.2070 
     13 C1          5.2059    0.9142   20.1141 C.ar      1 LIG         0.1770 
     14 C           4.6271    1.0523   21.5070 C.3       1 LIG        -0.0650 
     15 C4          6.8519    0.0480   18.5574 C.ar      1 LIG         0.4730 
     16 N           6.2618    0.6585   17.5106 N.ar      1 LIG        -0.6780 
     17 C3          5.1693    1.4108   17.7470 C.ar      1 LIG         0.4730 
     18 C2          4.6047    1.5725   19.0243 C.ar      1 LIG        -0.4470 
     19 HC11       13.9505    0.2415   23.1278 H         1 LIG         0.1150 
     20 HC10       12.2845    1.4789   24.4951 H         1 LIG         0.1150 
     21 HC9         9.8563    0.9143   24.3045 H         1 LIG         0.1150 
     22 HC13       10.8022   -2.1812   21.4809 H         1 LIG         0.1150 
     23 H7_1        8.1310   -0.7081   23.5462 H         1 LIG         0.0600 
     24 H7_2        8.5614   -1.9942   22.4355 H         1 LIG         0.0600 
     25 HN1         6.5609   -1.3140   21.3407 H         1 LIG         0.3000 
     26 HXT1        3.7165    1.6502   21.4938 H         1 LIG         0.0600 
     27 HXT2        4.3882    0.0721   21.9196 H         1 LIG         0.0600 
     28 HXT3        5.3448    1.5377   22.1690 H         1 LIG         0.0600 
     29 HC4         7.7382   -0.5299   18.3374 H         1 LIG         0.0120 
     30 HC3         4.7531    1.9234   16.8952 H         1 LIG         0.0120 
     31 HC2         3.7331    2.1948   19.1576 H         1 LIG         0.1550 
@<TRIPOS>BOND
     1    1    2 1    
     2    2    3 ar   
     3    2    6 ar   
     4    3    4 ar   
     5    3   19 1    
     6    4    5 ar   
     7    4   20 1    
     8    5    7 ar   
     9    5   21 1    
    10    6    7 ar   
    11    6   22 1    
    12    7    8 1    
    13    8    9 1    
    14    8   23 1    
    15    8   24 1    
    16    9   10 2    
    17    9   11 am   BACKBONE|DICT|INTERRES
    18   11   12 1    
    19   11   25 1    
    20   12   13 ar   
    21   12   15 ar   
    22   13   14 1    
    23   13   18 ar   
    24   14   26 1    
    25   14   27 1    
    26   14   28 1    
    27   15   16 ar   
    28   15   29 1    
    29   16   17 ar   
    30   17   18 ar   
    31   17   30 1    
    32   18   31 1    
@<TRIPOS>SUBSTRUCTURE
     1 LIG         1 GROUP             0 A     ****    0 ROOT    
