@<TRIPOS>MOLECULE
Mpro-x10371_ligand
37   39    1
SMALL
USER_CHARGES


@<TRIPOS>ATOM
      1 N           6.1565    0.6261   17.5606 N.ar      1 LIG        -0.6780 
      2 N2         12.7132    4.1189   21.6963 N.am      1 LIG        -0.5450 
      3 C1          7.1282   -0.5960   21.0307 C.3       1 LIG         0.0430 
      4 C11        12.3834    1.2808   23.0175 C.ar      1 LIG         0.0850 
      5 O1         12.7367    2.5281   23.4784 O.3       1 LIG        -0.2850 
      6 C8         11.7627   -1.3171   22.0781 C.ar      1 LIG        -0.1150 
      7 C2          6.3879    0.1401   19.9265 C.ar      1 LIG        -0.4550 
      8 C6          6.7653   -0.0160   18.5784 C.ar      1 LIG         0.4730 
      9 C5          5.1408    1.4620   17.8547 C.ar      1 LIG         0.4730 
     10 C4          4.6874    1.6925   19.1659 C.ar      1 LIG        -0.4470 
     11 C10        13.4044    0.3340   22.8032 C.ar      1 LIG        -0.1150 
     12 C13        12.4340    4.9686   23.5804 C.3       1 LIG        -0.1560 
     13 C9         13.0989   -0.9579   22.3334 C.ar      1 LIG        -0.1150 
     14 C12        12.0517    3.6439   22.9159 C.3       1 LIG         0.2225 
     15 C14        13.0646    5.3268   22.2367 C.2       1 LIG         0.6650 
     16 C           8.4825    0.0537   21.3324 C.2       1 LIG         0.5000 
     17 N1          9.4072   -0.7400   21.9067 N.am      1 LIG        -0.3850 
     18 O           8.6781    1.2343   21.0388 O.2       1 LIG        -0.5000 
     19 O2         13.6420    6.2850   21.7671 O.2       1 LIG        -0.5065 
     20 C7         10.7330   -0.3707   22.2511 C.ar      1 LIG         0.0850 
     21 C3          5.3233    1.0151   20.2232 C.ar      1 LIG         0.2270 
     22 C15        11.0435    0.9083   22.7646 C.ar      1 LIG        -0.1150 
     23 HN2        12.8507    3.7131   20.7822 H         1 LIG         0.3000 
     24 H1_1        7.2640   -1.6387   20.7430 H         1 LIG         0.0600 
     25 H1_2        6.5285   -0.5881   21.9404 H         1 LIG         0.0600 
     26 HC8        11.5355   -2.3046   21.7074 H         1 LIG         0.1150 
     27 HC6         7.5863   -0.6639   18.3104 H         1 LIG         0.0120 
     28 HC5         4.6898    1.9721   17.0190 H         1 LIG         0.0120 
     29 HC4         3.8761    2.3803   19.3516 H         1 LIG         0.1550 
     30 HC10       14.4309    0.6087   22.9809 H         1 LIG         0.1150 
     31 H131       13.1381    4.8739   24.4052 H         1 LIG         0.0600 
     32 H132       11.5724    5.5718   23.8657 H         1 LIG         0.0600 
     33 HC9        13.8892   -1.6751   22.1655 H         1 LIG         0.1150 
     34 HC12       10.9694    3.5559   22.8201 H         1 LIG         0.1000 
     35 HN1         9.1699   -1.7160   22.0144 H         1 LIG         0.3000 
     36 HC3         5.0010    1.1711   21.2420 H         1 LIG         0.0650 
     37 HC15       10.2414    1.6006   22.9625 H         1 LIG         0.1150 
@<TRIPOS>BOND
     1    1    8 ar   
     2    1    9 ar   
     3    2   14 1    
     4    2   15 am   BACKBONE|DICT|INTERRES
     5    2   23 1    
     6    3    7 1    
     7    3   16 1    
     8    3   24 1    
     9    3   25 1    
    10    4    5 1    
    11    4   11 ar   
    12    4   22 ar   
    13    5   14 1    
    14    6   13 ar   
    15    6   20 ar   
    16    6   26 1    
    17    7    8 ar   
    18    7   21 ar   
    19    8   27 1    
    20    9   10 ar   
    21    9   28 1    
    22   10   21 ar   
    23   10   29 1    
    24   11   13 ar   
    25   11   30 1    
    26   12   14 1    
    27   12   15 1    
    28   12   31 1    
    29   12   32 1    
    30   13   33 1    
    31   14   34 1    
    32   15   19 2    
    33   16   17 am   BACKBONE|DICT|INTERRES
    34   16   18 2    
    35   17   20 1    
    36   17   35 1    
    37   20   22 ar   
    38   21   36 1    
    39   22   37 1    
@<TRIPOS>SUBSTRUCTURE
     1 LIG         1 GROUP             0 A     ****    0 ROOT    
