@<TRIPOS>MOLECULE
Mpro-x11499_ligand
33   35    1
SMALL
USER_CHARGES


@<TRIPOS>ATOM
      1 O           8.7309    0.9536   21.2178 O.2       1 LIG        -0.5000 
      2 C6          8.2985   -0.1613   21.5188 C.2       1 LIG         0.5000 
      3 C5          8.9601   -0.9899   22.6256 C.3       1 LIG        -0.0050 
      4 C4         10.4481   -0.7087   22.7050 C.ar      1 LIG        -0.1150 
      5 C3         10.9296    0.3762   23.4661 C.ar      1 LIG        -0.1150 
      6 C2         12.3076    0.6579   23.5003 C.ar      1 LIG        -0.1150 
      7 C1         13.2051   -0.1414   22.7676 C.ar      1 LIG        -0.1150 
      8 C15        11.3523   -1.5185   21.9925 C.ar      1 LIG        -0.1150 
      9 C          12.7263   -1.2241   22.0062 C.ar      1 LIG         0.1800 
     10 CL         13.8128   -2.1882   21.0815 Cl        1 LIG        -0.1800 
     11 N           7.2322   -0.7119   20.9218 N.am      1 LIG        -0.3850 
     12 C7          6.4604   -0.0445   19.9452 C.ar      1 LIG        -0.2070 
     13 C14         5.3309    0.7333   20.2880 C.ar      1 LIG        -0.0000 
     14 C13         4.8689    0.9023   21.6119 C.ar      1 LIG         0.4730 
     15 N2          3.7930    1.6545   21.9301 N.ar      1 LIG        -0.6780 
     16 C12         3.1385    2.2844   20.9307 C.ar      1 LIG         0.4730 
     17 C11         3.5110    2.1854   19.5769 C.ar      1 LIG        -0.4470 
     18 C10         4.6281    1.3928   19.2534 C.ar      1 LIG         0.0000 
     19 C9          5.0728    1.2356   17.9272 C.ar      1 LIG         0.4730 
     20 N1          6.1393    0.4785   17.5950 N.ar      1 LIG        -0.6780 
     21 C8          6.8159   -0.1429   18.5854 C.ar      1 LIG         0.4730 
     22 H5_1        8.8011   -2.0541   22.4476 H         1 LIG         0.0600 
     23 H5_2        8.4904   -0.7517   23.5801 H         1 LIG         0.0600 
     24 HC3        10.2385    1.0041   24.0062 H         1 LIG         0.1150 
     25 HC2        12.6711    1.4975   24.0726 H         1 LIG         0.1150 
     26 HC1        14.2577    0.0893   22.7761 H         1 LIG         0.1150 
     27 HC15       10.9894   -2.3592   21.4219 H         1 LIG         0.1150 
     28 HN          6.9336   -1.6344   21.2119 H         1 LIG         0.3000 
     29 HC13        5.3641    0.4237   22.4437 H         1 LIG         0.0120 
     30 HC12        2.2857    2.8824   21.2169 H         1 LIG         0.0120 
     31 HC11        2.9586    2.7121   18.8120 H         1 LIG         0.1550 
     32 HC9         4.5717    1.7307   17.1110 H         1 LIG         0.0120 
     33 HC8         7.6729   -0.7274   18.2846 H         1 LIG         0.0120 
@<TRIPOS>BOND
     1    1    2 2    
     2    2    3 1    
     3    2   11 am   BACKBONE|DICT|INTERRES
     4    3    4 1    
     5    3   22 1    
     6    3   23 1    
     7    4    5 ar   
     8    4    8 ar   
     9    5    6 ar   
    10    5   24 1    
    11    6    7 ar   
    12    6   25 1    
    13    7    9 ar   
    14    7   26 1    
    15    8    9 ar   
    16    8   27 1    
    17    9   10 1    
    18   11   12 1    
    19   11   28 1    
    20   12   13 ar   
    21   12   21 ar   
    22   13   14 ar   
    23   13   18 ar   
    24   14   15 ar   
    25   14   29 1    
    26   15   16 ar   
    27   16   17 ar   
    28   16   30 1    
    29   17   18 ar   
    30   17   31 1    
    31   18   19 ar   
    32   19   20 ar   
    33   19   32 1    
    34   20   21 ar   
    35   21   33 1    
@<TRIPOS>SUBSTRUCTURE
     1 LIG         1 GROUP             0 A     ****    0 ROOT    
