@<TRIPOS>MOLECULE
Mpro-x11294_ligand
47   49    1
SMALL
USER_CHARGES


@<TRIPOS>ATOM
      1 O3          6.2100    1.0235   16.7870 O.2       1 LIG        -0.5000 
      2 C12         5.7155    0.8103   17.8850 C.ar      1 LIG         0.5567 
      3 C11         6.1288   -0.2697   18.7771 C.ar      1 LIG        -0.1717 
      4 N1          4.7322    1.5992   18.3428 N.pl3     1 LIG        -0.3850 
      5 C13         4.1269    1.5010   19.6117 C.ar      1 LIG         0.0850 
      6 C19         4.5428    0.5025   20.5271 C.ar      1 LIG         0.0000 
      7 C17         3.9536    0.4824   21.8258 C.ar      1 LIG         0.0850 
      8 O4          4.3860   -0.4409   22.7551 O.3       1 LIG        -0.2850 
      9 C18         3.9908   -0.2847   24.1087 C.3       1 LIG         0.1100 
     10 C16         2.9267    1.4156   22.1275 C.ar      1 LIG        -0.1150 
     11 C15         2.5105    2.3751   21.1899 C.ar      1 LIG        -0.1150 
     12 C14         3.1221    2.4261   19.9312 C.ar      1 LIG        -0.1150 
     13 C10         5.5992   -0.4189   20.0107 C.ar      1 LIG        -0.0567 
     14 C9          5.9580   -1.6106   20.7626 C.2       1 LIG         0.5567 
     15 O2          5.2793   -2.6337   20.8198 O.2       1 LIG        -0.5000 
     16 N           7.1154   -1.4742   21.4226 N.am      1 LIG        -0.5000 
     17 C8          7.6601   -2.4807   22.3273 C.3       1 LIG         0.0800 
     18 C7          9.1838   -2.4052   22.3518 C.3       1 LIG         0.1400 
     19 O1          9.5602   -1.1608   22.9173 O.3       1 LIG        -0.2850 
     20 C6         10.8808   -0.7824   22.8308 C.ar      1 LIG         0.0850 
     21 C1         11.1941    0.5245   23.2645 C.ar      1 LIG         0.0850 
     22 O          10.1508    1.2929   23.7359 O.3       1 LIG        -0.2850 
     23 C          10.3905    2.6711   23.9699 C.3       1 LIG         0.1100 
     24 C5         11.9045   -1.6179   22.3196 C.ar      1 LIG        -0.1150 
     25 C4         13.2247   -1.1492   22.2202 C.ar      1 LIG        -0.1150 
     26 C3         13.5334    0.1482   22.6598 C.ar      1 LIG        -0.1150 
     27 C2         12.5316    0.9812   23.1844 C.ar      1 LIG        -0.1150 
     28 HC11        6.8461   -0.9886   18.4111 H         1 LIG         0.1150 
     29 HN1         4.4263    2.3586   17.7471 H         1 LIG         0.3000 
     30 H181        4.5243   -1.0089   24.7245 H         1 LIG         0.0300 
     31 H182        4.2429    0.7102   24.4735 H         1 LIG         0.0300 
     32 H183        2.9229   -0.4621   24.2413 H         1 LIG         0.0300 
     33 HC16        2.4320    1.4194   23.0855 H         1 LIG         0.1150 
     34 HC15        1.7342    3.0817   21.4443 H         1 LIG         0.1150 
     35 HC14        2.8250    3.1759   19.2126 H         1 LIG         0.1150 
     36 HN          7.6269   -0.6066   21.3266 H         1 LIG         0.3000 
     37 H8_1        7.3678   -3.4818   22.0072 H         1 LIG         0.0600 
     38 H8_2        7.2526   -2.3319   23.3279 H         1 LIG         0.0600 
     39 H7_1        9.5605   -2.5096   21.3329 H         1 LIG         0.0300 
     40 H7_2        9.5899   -3.2198   22.9525 H         1 LIG         0.0300 
     41 HXT1        9.4608    3.1531   24.2729 H         1 LIG         0.0300 
     42 HXT2       11.1131    2.8175   24.7702 H         1 LIG         0.0300 
     43 HXT3       10.7460    3.1710   23.0676 H         1 LIG         0.0300 
     44 HC5        11.6976   -2.6201   21.9842 H         1 LIG         0.1150 
     45 HC4        13.9964   -1.7856   21.8135 H         1 LIG         0.1150 
     46 HC3        14.5396    0.5216   22.5765 H         1 LIG         0.1150 
     47 HC2        12.8149    1.9725   23.5028 H         1 LIG         0.1150 
@<TRIPOS>BOND
     1    1    2 2    
     2    2    3 ar   
     3    2    4 ar   
     4    3   13 ar   
     5    3   28 1    
     6    4    5 ar   
     7    4   29 1    
     8    5    6 ar   
     9    5   12 ar   
    10    6    7 ar   
    11    6   13 ar   
    12    7    8 1    
    13    7   10 ar   
    14    8    9 1    
    15    9   30 1    
    16    9   31 1    
    17    9   32 1    
    18   10   11 ar   
    19   10   33 1    
    20   11   12 ar   
    21   11   34 1    
    22   12   35 1    
    23   13   14 1    
    24   14   15 2    
    25   14   16 am   BACKBONE|DICT|INTERRES
    26   16   17 1    
    27   16   36 1    
    28   17   18 1    
    29   17   37 1    
    30   17   38 1    
    31   18   19 1    
    32   18   39 1    
    33   18   40 1    
    34   19   20 1    
    35   20   21 ar   
    36   20   24 ar   
    37   21   22 1    
    38   21   27 ar   
    39   22   23 1    
    40   23   41 1    
    41   23   42 1    
    42   23   43 1    
    43   24   25 ar   
    44   24   44 1    
    45   25   26 ar   
    46   25   45 1    
    47   26   27 ar   
    48   26   46 1    
    49   27   47 1    
@<TRIPOS>SUBSTRUCTURE
     1 LIG         1 GROUP             0 A     ****    0 ROOT    
