@<TRIPOS>MOLECULE
Mpro-x10638_ligand
37   39    1
SMALL
USER_CHARGES


@<TRIPOS>ATOM
      1 N           6.1652    0.7435   17.3870 N.ar      1 LIG        -0.6780 
      2 N2          9.1596   -0.4344   23.4698 N.am      1 LIG        -0.0317 
      3 C1          5.0719    0.9409   19.9840 C.ar      1 LIG         0.1770 
      4 C11        12.7280    0.3945   24.1586 C.ar      1 LIG        -0.1150 
      5 O1          7.3156    0.4992   24.4283 O.2       1 LIG        -0.5000 
      6 C8          8.5400    0.4072   24.3376 C.2       1 LIG         0.5000 
      7 C2          4.5425    1.6958   18.9185 C.ar      1 LIG        -0.4470 
      8 C6          7.9289   -0.3691   21.3175 C.2       1 LIG         0.5000 
      9 C5          6.1737    0.0970   19.7209 C.ar      1 LIG        -0.2070 
     10 C4          6.6820    0.0349   18.4094 C.ar      1 LIG         0.4730 
     11 C10        11.3377    0.3053   24.2875 C.ar      1 LIG         0.0850 
     12 C13        12.6764   -1.0838   22.2358 C.ar      1 LIG         0.1800 
     13 C9          9.3954    1.3534   25.1942 C.3       1 LIG         0.1400 
     14 C12        13.3972   -0.2786   23.1278 C.ar      1 LIG        -0.1150 
     15 C14        11.2727   -1.1413   22.3261 C.ar      1 LIG        -0.1150 
     16 C           4.4820    1.0653   21.3751 C.3       1 LIG        -0.0650 
     17 N1          6.7600   -0.6735   20.7436 N.am      1 LIG        -0.3850 
     18 O           8.6501    0.5479   20.9229 O.2       1 LIG        -0.5000 
     19 O2         10.7423    0.9224   25.3559 O.3       1 LIG        -0.2850 
     20 C7          8.3315   -1.2144   22.5334 C.3       1 LIG        -0.0500 
     21 C3          5.1188    1.5549   17.6439 C.ar      1 LIG         0.4730 
     22 C15        10.5841   -0.4329   23.3474 C.ar      1 LIG        -0.0383 
     23 CL         13.5280   -1.9974   21.0463 Cl        1 LIG        -0.1800 
     24 HC11       13.2719    0.9740   24.8732 H         1 LIG         0.1150 
     25 HC2         3.7156    2.3753   19.0676 H         1 LIG         0.1550 
     26 HC4         7.5281   -0.5955   18.1753 H         1 LIG         0.0120 
     27 H9_1        8.9461    1.4448   26.1834 H         1 LIG         0.0300 
     28 H9_2        9.3861    2.3505   24.7551 H         1 LIG         0.0300 
     29 HC12       14.4618   -0.2068   23.0347 H         1 LIG         0.1150 
     30 HC14       10.7558   -1.7334   21.5891 H         1 LIG         0.1150 
     31 HXT1        4.3283    0.0838   21.8234 H         1 LIG         0.0600 
     32 HXT2        5.1523    1.6331   22.0191 H         1 LIG         0.0600 
     33 HXT3        3.5200    1.5762   21.3487 H         1 LIG         0.0600 
     34 HN1         6.1919   -1.3958   21.1691 H         1 LIG         0.3000 
     35 H7_1        7.4320   -1.5625   23.0426 H         1 LIG         0.0600 
     36 H7_2        8.8126   -2.1345   22.2074 H         1 LIG         0.0600 
     37 HC3         4.7526    2.1331   16.8108 H         1 LIG         0.0120 
@<TRIPOS>BOND
     1    1   10 ar   
     2    1   21 ar   
     3    2    6 am   BACKBONE|DICT|INTERRES
     4    2   20 1    
     5    2   22 1    
     6    3    7 ar   
     7    3    9 ar   
     8    3   16 1    
     9    4   11 ar   
    10    4   14 ar   
    11    4   24 1    
    12    5    6 2    
    13    6   13 1    
    14    7   21 ar   
    15    7   25 1    
    16    8   17 am   BACKBONE|DICT|INTERRES
    17    8   18 2    
    18    8   20 1    
    19    9   10 ar   
    20    9   17 1    
    21   10   26 1    
    22   11   19 1    
    23   11   22 ar   
    24   12   14 ar   
    25   12   15 ar   
    26   12   23 1    
    27   13   19 1    
    28   13   27 1    
    29   13   28 1    
    30   14   29 1    
    31   15   22 ar   
    32   15   30 1    
    33   16   31 1    
    34   16   32 1    
    35   16   33 1    
    36   17   34 1    
    37   20   35 1    
    38   20   36 1    
    39   21   37 1    
@<TRIPOS>SUBSTRUCTURE
     1 LIG         1 GROUP             0 A     ****    0 ROOT    
