@<TRIPOS>MOLECULE
Mpro-x12171_ligand
40   43    1
SMALL
USER_CHARGES


@<TRIPOS>ATOM
      1 O           8.8346    0.6100   21.1467 O.2       1 LIG        -0.5000 
      2 C7          8.3206   -0.4492   21.5199 C.2       1 LIG         0.5000 
      3 C6          8.8966   -1.2302   22.7196 C.3       1 LIG         0.0550 
      4 C5          8.0709   -0.9166   24.0006 C.3       1 LIG        -0.1200 
      5 C4          8.8781   -0.2515   25.1290 C.3       1 LIG         0.0800 
      6 N           9.8084    0.7400   24.6105 N.pl3     1 LIG        -0.7800 
      7 C17        10.3729   -0.8627   22.8721 C.ar      1 LIG        -0.1150 
      8 C3         10.7509    0.1913   23.7352 C.ar      1 LIG         0.2000 
      9 C2         12.0773    0.6689   23.7205 C.ar      1 LIG        -0.1150 
     10 C1         13.0406    0.0554   22.8981 C.ar      1 LIG        -0.1150 
     11 C18        11.3523   -1.5122   22.0981 C.ar      1 LIG        -0.1150 
     12 C          12.6841   -1.0637   22.1213 C.ar      1 LIG         0.1800 
     13 CL         13.8626   -1.8633   21.1543 Cl        1 LIG        -0.1800 
     14 N1          7.2342   -0.9702   20.9268 N.am      1 LIG        -0.3850 
     15 C8          6.4853   -0.2552   19.9631 C.ar      1 LIG        -0.4271 
     16 C16         5.3965    0.5694   20.3238 C.ar      1 LIG         0.6486 
     17 C15         4.9350    0.6657   21.6537 C.ar      1 LIG        -0.4445 
     18 C14         3.8528    1.5094   21.9629 C.ar      1 LIG        -0.0460 
     19 C13         3.2339    2.2676   20.9526 C.ar      1 LIG        -0.1533 
     20 C12         3.6929    2.1879   19.6252 C.ar      1 LIG        -0.1818 
     21 C11         4.7654    1.3309   19.3107 C.ar      1 LIG        -0.2505 
     22 C10         5.2324    1.2119   17.9900 C.ar      1 LIG         0.3967 
     23 N2          6.2346    0.3859   17.6361 N.ar      1 LIG        -0.6841 
     24 C9          6.8455   -0.3250   18.6060 C.ar      1 LIG         0.4845 
     25 HC6         8.8330   -2.2980   22.5033 H         1 LIG         0.0600 
     26 H5_1        7.6232   -1.8352   24.3811 H         1 LIG         0.0600 
     27 H5_2        7.2270   -0.2645   23.7718 H         1 LIG         0.0600 
     28 H4_1        9.4476   -1.0050   25.6746 H         1 LIG         0.0600 
     29 H4_2        8.2091    0.2189   25.8501 H         1 LIG         0.0600 
     30 HN         10.1224    1.4637   25.2429 H         1 LIG         0.3800 
     31 HC2        12.3704    1.4974   24.3431 H         1 LIG         0.1150 
     32 HC1        14.0567    0.4199   22.8899 H         1 LIG         0.1150 
     33 HC18       11.0738   -2.3373   21.4628 H         1 LIG         0.1150 
     34 HN1         6.8253   -1.8116   21.3089 H         1 LIG         0.3000 
     35 HC15        5.3881    0.0890   22.4441 H         1 LIG         0.2009 
     36 HC14        3.4958    1.5688   22.9790 H         1 LIG         0.1382 
     37 HC13        2.4061    2.9150   21.2005 H         1 LIG         0.1414 
     38 HC12        3.2200    2.7787   18.8525 H         1 LIG         0.1598 
     39 HC10        4.8036    1.7980   17.1939 H         1 LIG         0.0566 
     40 HC9         7.6654   -0.9518   18.2980 H         1 LIG         0.0456 
@<TRIPOS>BOND
     1    1    2 2    
     2    2    3 1    
     3    2   14 am   BACKBONE|DICT|INTERRES
     4    3    4 1    
     5    3    7 1    
     6    3   25 1    
     7    4    5 1    
     8    4   26 1    
     9    4   27 1    
    10    5    6 1    
    11    5   28 1    
    12    5   29 1    
    13    6    8 1    
    14    6   30 1    
    15    7    8 ar   
    16    7   11 ar   
    17    8    9 ar   
    18    9   10 ar   
    19    9   31 1    
    20   10   12 ar   
    21   10   32 1    
    22   11   12 ar   
    23   11   33 1    
    24   12   13 1    
    25   14   15 1    
    26   14   34 1    
    27   15   16 ar   
    28   15   24 ar   
    29   16   17 ar   
    30   16   21 ar   
    31   17   18 ar   
    32   17   35 1    
    33   18   19 ar   
    34   18   36 1    
    35   19   20 ar   
    36   19   37 1    
    37   20   21 ar   
    38   20   38 1    
    39   21   22 ar   
    40   22   23 ar   
    41   22   39 1    
    42   23   24 ar   
    43   24   40 1    
@<TRIPOS>SUBSTRUCTURE
     1 LIG         1 GROUP             0 A     ****    0 ROOT    
