@<TRIPOS>MOLECULE
Mpro-x0689_ligand
31   32    1
SMALL
USER_CHARGES


@<TRIPOS>ATOM
      1 N           6.5083   -5.1547   21.7829 N.am      1 LIG        -0.1400 
      2 C           6.9161   -3.0131   20.6180 C.3       1 LIG        -0.1800 
      3 O           5.7373   -4.8335   19.6787 O.2       1 LIG        -0.5000 
      4 C1          6.3534   -4.4253   20.6599 C.2       1 LIG         0.5000 
      5 C2          7.3211   -4.7737   22.9339 C.3       1 LIG        -0.0133 
      6 C3          6.3773   -4.2644   24.0278 C.3       1 LIG         0.0588 
      7 C4          4.6717   -5.9015   23.2043 C.3       1 LIG         0.0588 
      8 C5          5.6732   -6.3067   22.1037 C.3       1 LIG        -0.0133 
      9 C6          3.4313   -3.8755   25.7359 C.2       1 LIG        -0.0562 
     10 C7          2.1154   -3.9657   25.3651 C.2       1 LIG        -0.0738 
     11 C8          1.4438   -2.7087   25.4219 C.2       1 LIG        -0.0738 
     12 C9          2.2632   -1.6853   25.8238 C.2       1 LIG        -0.3255 
     13 N1          5.3713   -5.2923   24.3576 N.pl3     1 LIG        -0.5376 
     14 O1          3.7972   -6.4409   26.0770 O.2       1 LIG        -0.4680 
     15 O2          5.5825   -4.8058   26.9007 O.2       1 LIG        -0.4680 
     16 S           4.5883   -5.2143   25.8965 S.o2      1 LIG         0.9819 
     17 S1          3.8892   -2.2384   26.1209 S.3       1 LIG         0.0328 
     18 HXT1        6.7384   -2.5744   19.6398 H         1 LIG         0.0600 
     19 HXT2        6.4122   -2.3904   21.3525 H         1 LIG         0.0600 
     20 HXT3        7.9895   -3.0007   20.7933 H         1 LIG         0.0600 
     21 H2_1        8.0812   -4.0269   22.7125 H         1 LIG         0.0600 
     22 H2_2        7.8729   -5.6448   23.2895 H         1 LIG         0.0600 
     23 H3_1        5.8675   -3.3551   23.7075 H         1 LIG         0.0733 
     24 H3_2        6.9525   -4.0078   24.9130 H         1 LIG         0.0733 
     25 H4_1        4.1154   -6.7796   23.5294 H         1 LIG         0.0733 
     26 H4_2        3.9441   -5.1876   22.8155 H         1 LIG         0.0733 
     27 H5_1        6.3009   -7.1300   22.4465 H         1 LIG         0.0600 
     28 H5_2        5.1364   -6.6784   21.2340 H         1 LIG         0.0600 
     29 HC7         1.6152   -4.8794   25.0791 H         1 LIG         0.1211 
     30 HC8         0.3985   -2.6005   25.1729 H         1 LIG         0.1211 
     31 HC9         2.0187   -0.6410   25.9488 H         1 LIG         0.2618 
@<TRIPOS>BOND
     1    1    4 am   BACKBONE|DICT|INTERRES
     2    1    5 1    
     3    1    8 1    
     4    2    4 1    
     5    2   18 1    
     6    2   19 1    
     7    2   20 1    
     8    3    4 2    
     9    5    6 1    
    10    5   21 1    
    11    5   22 1    
    12    6   13 1    
    13    6   23 1    
    14    6   24 1    
    15    7    8 1    
    16    7   13 1    
    17    7   25 1    
    18    7   26 1    
    19    8   27 1    
    20    8   28 1    
    21    9   10 2    
    22    9   16 1    
    23    9   17 1    
    24   10   11 1    
    25   10   29 1    
    26   11   12 2    
    27   11   30 1    
    28   12   17 1    
    29   12   31 1    
    30   13   16 1    
    31   14   16 2    
    32   15   16 2    
@<TRIPOS>SUBSTRUCTURE
     1 LIG         1 GROUP             0 A     ****    0 ROOT    
