@<TRIPOS>MOLECULE
Mpro-x12207_ligand
42   45    1
SMALL
USER_CHARGES


@<TRIPOS>ATOM
      1 O1          9.1802    1.0575   21.1600 O.2       1 LIG        -0.5000 
      2 C10         8.7206    0.0008   21.6029 C.2       1 LIG         0.5000 
      3 C1          9.3010   -0.6306   22.8960 C.3       1 LIG         0.1150 
      4 C9         10.8154   -0.3941   22.8574 C.ar      1 LIG        -0.1150 
      5 C8         11.6308   -1.1363   21.9771 C.ar      1 LIG        -0.1150 
      6 C7         13.0010   -0.8588   21.8631 C.ar      1 LIG         0.1800 
      7 CL         13.9664   -1.8033   20.7979 Cl        1 LIG        -0.1800 
      8 C6         13.5675    0.1837   22.6151 C.ar      1 LIG        -0.1150 
      9 C5         12.7670    0.9192   23.5061 C.ar      1 LIG        -0.1150 
     10 C4         11.4064    0.6083   23.6671 C.ar      1 LIG         0.0850 
     11 O          10.6864    1.2857   24.6182 O.3       1 LIG        -0.2850 
     12 C3          9.6364    0.5207   25.1877 C.3       1 LIG         0.1400 
     13 C2          8.6427    0.1029   24.1016 C.3       1 LIG        -0.1200 
     14 C           9.0140   -2.1530   22.9849 C.3       1 LIG        -0.1800 
     15 N           7.6909   -0.6280   21.0190 N.am      1 LIG        -0.3850 
     16 C11         6.8851   -0.0402   20.0194 C.ar      1 LIG        -0.4271 
     17 C19         5.6951    0.6563   20.3400 C.ar      1 LIG         0.6486 
     18 C18         5.2206    0.7738   21.6650 C.ar      1 LIG        -0.4445 
     19 C17         4.0394    1.4919   21.9279 C.ar      1 LIG        -0.0460 
     20 C16         3.3346    2.1103   20.8776 C.ar      1 LIG        -0.1533 
     21 C15         3.8019    2.0021   19.5556 C.ar      1 LIG        -0.1818 
     22 C14         4.9681    1.2612   19.2871 C.ar      1 LIG        -0.2505 
     23 C13         5.4403    1.1091   17.9718 C.ar      1 LIG         0.3967 
     24 N1          6.5557    0.4211   17.6657 N.ar      1 LIG        -0.6841 
     25 C12         7.2670   -0.1304   18.6683 C.ar      1 LIG         0.4845 
     26 HC8        11.2106   -1.9268   21.3776 H         1 LIG         0.1150 
     27 HC6        14.6116    0.4255   22.5078 H         1 LIG         0.1150 
     28 HC5        13.2001    1.7179   24.0812 H         1 LIG         0.1150 
     29 H3_1        9.1322    1.1198   25.9458 H         1 LIG         0.0300 
     30 H3_2       10.0511   -0.3509   25.6956 H         1 LIG         0.0300 
     31 H2_1        7.8430   -0.4951   24.5394 H         1 LIG         0.0600 
     32 H2_2        8.1519    1.0183   23.7747 H         1 LIG         0.0600 
     33 HXT1        9.5927   -2.6130   23.7865 H         1 LIG         0.0600 
     34 HXT2        7.9625   -2.3571   23.1851 H         1 LIG         0.0600 
     35 HXT3        9.2650   -2.6825   22.0656 H         1 LIG         0.0600 
     36 HN          7.3485   -1.4706   21.4595 H         1 LIG         0.3000 
     37 HC18        5.7521    0.3232   22.4894 H         1 LIG         0.2009 
     38 HC17        3.6764    1.5716   22.9407 H         1 LIG         0.1382 
     39 HC16        2.4326    2.6663   21.0865 H         1 LIG         0.1414 
     40 HC15        3.2620    2.4835   18.7521 H         1 LIG         0.1598 
     41 HC13        4.9295    1.5681   17.1407 H         1 LIG         0.0566 
     42 HC12        8.1710   -0.6492   18.3825 H         1 LIG         0.0456 
@<TRIPOS>BOND
     1    1    2 2    
     2    2    3 1    
     3    2   15 am   BACKBONE|DICT|INTERRES
     4    3    4 1    
     5    3   13 1    
     6    3   14 1    
     7    4    5 ar   
     8    4   10 ar   
     9    5    6 ar   
    10    5   26 1    
    11    6    7 1    
    12    6    8 ar   
    13    8    9 ar   
    14    8   27 1    
    15    9   10 ar   
    16    9   28 1    
    17   10   11 1    
    18   11   12 1    
    19   12   13 1    
    20   12   29 1    
    21   12   30 1    
    22   13   31 1    
    23   13   32 1    
    24   14   33 1    
    25   14   34 1    
    26   14   35 1    
    27   15   16 1    
    28   15   36 1    
    29   16   17 ar   
    30   16   25 ar   
    31   17   18 ar   
    32   17   22 ar   
    33   18   19 ar   
    34   18   37 1    
    35   19   20 ar   
    36   19   38 1    
    37   20   21 ar   
    38   20   39 1    
    39   21   22 ar   
    40   21   40 1    
    41   22   23 ar   
    42   23   24 ar   
    43   23   41 1    
    44   24   25 ar   
    45   25   42 1    
@<TRIPOS>SUBSTRUCTURE
     1 LIG         1 GROUP             0 A     ****    0 ROOT    
