@<TRIPOS>MOLECULE
Mpro-x1418_ligand
34   35    1
SMALL
USER_CHARGES


@<TRIPOS>ATOM
      1 N           6.7127   -2.3591   20.9337 N.am      1 LIG        -0.1400 
      2 C           6.3326   -1.9210   18.5186 C.3       1 LIG        -0.1800 
      3 O           5.8648   -3.9756   19.5956 O.2       1 LIG        -0.5000 
      4 C1          6.3005   -2.8353   19.7396 C.2       1 LIG         0.5000 
      5 C10         6.5847   -3.1234   22.1755 C.3       1 LIG        -0.0500 
      6 C2          7.4839   -1.1300   21.1266 C.3       1 LIG        -0.0500 
      7 C3          8.9020   -1.5034   21.5808 C.3       1 LIG         0.1500 
      8 C4         10.1902   -2.6823   23.3717 C.3       1 LIG         0.1500 
      9 C5         11.1071   -1.4847   23.4799 C.2       1 LIG         0.0075 
     10 C6         12.1548   -1.2145   22.6974 C.2       1 LIG        -0.1150 
     11 C7         12.8982    0.0723   22.9621 C.3       1 LIG        -0.1200 
     12 C8         12.1873    0.7981   24.1212 C.3       1 LIG         0.0475 
     13 C9          7.9843   -3.5233   22.6688 C.3       1 LIG         0.1500 
     14 N1          8.8591   -2.3301   22.8200 N.4       1 LIG        -0.1000 
     15 S          10.8284   -0.2560   24.6921 S.3       1 LIG        -0.1750 
     16 HXT1        6.0515   -2.4818   17.6328 H         1 LIG         0.0600 
     17 HXT2        5.6246   -1.1065   18.6487 H         1 LIG         0.0600 
     18 HXT3        7.3224   -1.5055   18.3335 H         1 LIG         0.0600 
     19 H101        5.9544   -4.0053   22.0650 H         1 LIG         0.0600 
     20 H102        6.0879   -2.5075   22.9260 H         1 LIG         0.0600 
     21 H2_1        7.0001   -0.5208   21.8904 H         1 LIG         0.0600 
     22 H2_2        7.5415   -0.4942   20.2457 H         1 LIG         0.0600 
     23 H3_1        9.4549   -0.5785   21.7414 H         1 LIG         0.0600 
     24 H3_2        9.4206   -2.0520   20.7933 H         1 LIG         0.0600 
     25 H4_1       10.0675   -3.1072   24.3639 H         1 LIG         0.0600 
     26 H4_2       10.6640   -3.4389   22.7514 H         1 LIG         0.0600 
     27 HC6        12.4661   -1.8499   21.8832 H         1 LIG         0.1150 
     28 H7_1       12.8881    0.6770   22.0596 H         1 LIG         0.0600 
     29 H7_2       13.9379   -0.1445   23.2041 H         1 LIG         0.0600 
     30 H8_1       11.7904    1.7580   23.7959 H         1 LIG         0.0600 
     31 H8_2       12.8772    0.9783   24.9401 H         1 LIG         0.0600 
     32 H9_1        8.4396   -4.2226   21.9652 H         1 LIG         0.0600 
     33 H9_2        7.8968   -4.0474   23.6179 H         1 LIG         0.0600 
     34 HN1         8.4129   -1.7450   23.5168 H         1 LIG         0.2900 
@<TRIPOS>BOND
     1    1    4 am   BACKBONE|DICT|INTERRES
     2    1    5 1    
     3    1    6 1    
     4    2    4 1    
     5    2   16 1    
     6    2   17 1    
     7    2   18 1    
     8    3    4 2    
     9    5   13 1    
    10    5   19 1    
    11    5   20 1    
    12    6    7 1    
    13    6   21 1    
    14    6   22 1    
    15    7   14 1    
    16    7   23 1    
    17    7   24 1    
    18    8    9 1    
    19    8   14 1    
    20    8   25 1    
    21    8   26 1    
    22    9   10 2    
    23    9   15 1    
    24   10   11 1    
    25   10   27 1    
    26   11   12 1    
    27   11   28 1    
    28   11   29 1    
    29   12   15 1    
    30   12   30 1    
    31   12   31 1    
    32   13   14 1    
    33   13   32 1    
    34   13   33 1    
    35   14   34 1    
@<TRIPOS>SUBSTRUCTURE
     1 LIG         1 GROUP             0 A     ****    0 ROOT    
