@<TRIPOS>MOLECULE
Mpro-x11530_ligand
33   35    1
SMALL
USER_CHARGES


@<TRIPOS>ATOM
      1 O           8.8623    0.8588   21.0565 O.2       1 LIG        -0.5000 
      2 C6          8.3330   -0.1936   21.4240 C.2       1 LIG         0.5000 
      3 C5          8.8973   -0.9954   22.6036 C.3       1 LIG        -0.0050 
      4 C4         10.3719   -0.7157   22.7941 C.ar      1 LIG        -0.1150 
      5 C3         10.8062    0.3039   23.6641 C.ar      1 LIG        -0.1150 
      6 C2         12.1762    0.6137   23.7556 C.ar      1 LIG        -0.1150 
      7 C1         13.1100   -0.0913   22.9707 C.ar      1 LIG        -0.1150 
      8 C15        11.3122   -1.4495   22.0517 C.ar      1 LIG        -0.1150 
      9 C          12.6751   -1.1216   22.1150 C.ar      1 LIG         0.1800 
     10 CL         13.7928   -1.9757   21.1247 Cl        1 LIG        -0.1800 
     11 N           7.2366   -0.6985   20.8427 N.am      1 LIG        -0.3850 
     12 C7          6.5012   -0.0246   19.8438 C.ar      1 LIG        -0.4917 
     13 C14         5.3345    0.7031   20.1710 C.ar      1 LIG         1.0624 
     14 N2          4.8629    0.7573   21.4393 N.ar      1 LIG        -0.7665 
     15 C13         3.7631    1.4967   21.6912 C.ar      1 LIG         0.4244 
     16 C12         3.0753    2.2249   20.7042 C.ar      1 LIG        -0.4707 
     17 C11         3.5531    2.1762   19.3835 C.ar      1 LIG         0.1193 
     18 C10         4.6887    1.3910   19.1124 C.ar      1 LIG        -0.5673 
     19 C9          5.1972    1.2820   17.8061 C.ar      1 LIG         0.4776 
     20 N1          6.2892    0.5584   17.5024 N.ar      1 LIG        -0.7115 
     21 C8          6.9316   -0.0712   18.5046 C.ar      1 LIG         0.5154 
     22 H5_1        8.7552   -2.0639   22.4359 H         1 LIG         0.0600 
     23 H5_2        8.3546   -0.7364   23.5111 H         1 LIG         0.0600 
     24 HC3        10.0828    0.8653   24.2349 H         1 LIG         0.1150 
     25 HC2        12.5086    1.4071   24.4064 H         1 LIG         0.1150 
     26 HC1        14.1565    0.1627   23.0183 H         1 LIG         0.1150 
     27 HC15       10.9781   -2.2472   21.4090 H         1 LIG         0.1150 
     28 HN          6.8105   -1.5164   21.2623 H         1 LIG         0.3000 
     29 HC13        3.4211    1.5085   22.7149 H         1 LIG         0.0703 
     30 HC12        2.2025    2.8104   20.9534 H         1 LIG         0.1920 
     31 HC11        3.0544    2.7282   18.5984 H         1 LIG         0.1300 
     32 HC9         4.7327    1.8034   16.9845 H         1 LIG         0.0492 
     33 HC8         7.8206   -0.6211   18.2326 H         1 LIG         0.0521 
@<TRIPOS>BOND
     1    1    2 2    
     2    2    3 1    
     3    2   11 am   BACKBONE|DICT|INTERRES
     4    3    4 1    
     5    3   22 1    
     6    3   23 1    
     7    4    5 ar   
     8    4    8 ar   
     9    5    6 ar   
    10    5   24 1    
    11    6    7 ar   
    12    6   25 1    
    13    7    9 ar   
    14    7   26 1    
    15    8    9 ar   
    16    8   27 1    
    17    9   10 1    
    18   11   12 1    
    19   11   28 1    
    20   12   13 ar   
    21   12   21 ar   
    22   13   14 ar   
    23   13   18 ar   
    24   14   15 ar   
    25   15   16 ar   
    26   15   29 1    
    27   16   17 ar   
    28   16   30 1    
    29   17   18 ar   
    30   17   31 1    
    31   18   19 ar   
    32   19   20 ar   
    33   19   32 1    
    34   20   21 ar   
    35   21   33 1    
@<TRIPOS>SUBSTRUCTURE
     1 LIG         1 GROUP             0 A     ****    0 ROOT    
