@<TRIPOS>MOLECULE
Mpro-x10322_ligand
39   41    1
SMALL
USER_CHARGES


@<TRIPOS>ATOM
      1 N           9.1378   -0.6363   21.9878 N.am      1 LIG        -0.3850 
      2 N3         12.3934    4.1601   21.6099 N.am      1 LIG        -0.5450 
      3 N2          6.0886    0.5684   17.4508 N.ar      1 LIG        -0.8390 
      4 C1         12.6859   -1.0376   22.9622 C.ar      1 LIG        -0.1150 
      5 C11        12.1578    1.3486   23.0991 C.ar      1 LIG         0.0850 
      6 O1         12.6364    2.6026   23.4048 O.3       1 LIG        -0.2850 
      7 C8          5.0808    1.3840   17.7556 C.ar      1 LIG         0.8740 
      8 C2         11.3724   -1.3145   22.5489 C.ar      1 LIG        -0.1150 
      9 C6          6.2383    0.0815   19.8006 C.ar      1 LIG        -0.6070 
     10 C5          6.9351   -0.6037   20.9584 C.3       1 LIG        -0.0050 
     11 C4          8.2558    0.0975   21.2928 C.2       1 LIG         0.5000 
     12 C10        10.8290    1.0622   22.6999 C.ar      1 LIG        -0.1150 
     13 C13        12.6150    5.0250   23.4880 C.3       1 LIG        -0.1560 
     14 C9          6.6694   -0.0911   18.4728 C.ar      1 LIG         0.6530 
     15 C12        11.9458    3.7588   22.9481 C.3       1 LIG         0.2225 
     16 C14        13.0821    5.2561   22.0578 C.2       1 LIG         0.6650 
     17 C          13.6801   -2.1620   23.1123 C.3       1 LIG        -0.0650 
     18 N1          4.5850    1.6184   18.9694 N.ar      1 LIG        -0.8390 
     19 O           8.4626    1.2514   20.9134 O.2       1 LIG        -0.5000 
     20 O2         13.7657    6.0804   21.4863 O.2       1 LIG        -0.5065 
     21 C7          5.1664    0.9721   19.9991 C.ar      1 LIG         0.6530 
     22 C3         10.4418   -0.2696   22.4040 C.ar      1 LIG         0.0850 
     23 C15        13.0708    0.2861   23.2272 C.ar      1 LIG        -0.1150 
     24 HN          8.8861   -1.6041   22.1439 H         1 LIG         0.3000 
     25 HN3        12.2744    3.7566   20.6922 H         1 LIG         0.3000 
     26 HC8         4.6406    1.9259   16.9349 H         1 LIG        -0.0320 
     27 HC2        11.0826   -2.3324   22.3291 H         1 LIG         0.1150 
     28 H5_1        7.1183   -1.6459   20.6972 H         1 LIG         0.0600 
     29 H5_2        6.2897   -0.6004   21.8372 H         1 LIG         0.0600 
     30 HC10       10.1037    1.8549   22.6253 H         1 LIG         0.1150 
     31 H131       13.4117    4.8409   24.2015 H         1 LIG         0.0600 
     32 H132       11.9163    5.7704   23.8618 H         1 LIG         0.0600 
     33 HC9         7.5029   -0.7318   18.2296 H         1 LIG         0.0110 
     34 HC12       10.8663    3.7773   23.1042 H         1 LIG         0.1000 
     35 HXT1       14.5190   -1.8725   23.7430 H         1 LIG         0.0600 
     36 HXT2       13.2002   -3.0198   23.5739 H         1 LIG         0.0600 
     37 HXT3       14.0516   -2.4573   22.1328 H         1 LIG         0.0600 
     38 HC7         4.7905    1.1881   20.9868 H         1 LIG         0.0110 
     39 HC15       14.0852    0.4930   23.5238 H         1 LIG         0.1150 
@<TRIPOS>BOND
     1    1   11 am   BACKBONE|DICT|INTERRES
     2    1   22 1    
     3    1   24 1    
     4    2   15 1    
     5    2   16 am   BACKBONE|DICT|INTERRES
     6    2   25 1    
     7    3    7 ar   
     8    3   14 ar   
     9    4    8 ar   
    10    4   17 1    
    11    4   23 ar   
    12    5    6 1    
    13    5   12 ar   
    14    5   23 ar   
    15    6   15 1    
    16    7   18 ar   
    17    7   26 1    
    18    8   22 ar   
    19    8   27 1    
    20    9   10 1    
    21    9   14 ar   
    22    9   21 ar   
    23   10   11 1    
    24   10   28 1    
    25   10   29 1    
    26   11   19 2    
    27   12   22 ar   
    28   12   30 1    
    29   13   15 1    
    30   13   16 1    
    31   13   31 1    
    32   13   32 1    
    33   14   33 1    
    34   15   34 1    
    35   16   20 2    
    36   17   35 1    
    37   17   36 1    
    38   17   37 1    
    39   18   21 ar   
    40   21   38 1    
    41   23   39 1    
@<TRIPOS>SUBSTRUCTURE
     1 LIG         1 GROUP             0 A     ****    0 ROOT    
