@<TRIPOS>MOLECULE
Mpro-x12423_ligand
52   55    1
SMALL
USER_CHARGES


@<TRIPOS>ATOM
      1 O           8.9428    1.5826   21.1861 O.2       1 LIG        -0.5000 
      2 C15         8.7589    0.5293   21.7990 C.2       1 LIG         0.5000 
      3 C16         8.0270   -0.6328   21.0957 C.3       1 LIG         0.0025 
      4 N2          7.1723   -0.1484   20.0321 N.pl3     1 LIG         0.0636 
      5 C22         5.9759    0.5328   20.1310 C.ar      1 LIG        -0.0957 
      6 C21         5.1302    0.9500   21.1700 C.ar      1 LIG        -0.1150 
      7 C20         3.9928    1.7149   20.8486 C.ar      1 LIG        -0.1150 
      8 C19         3.7306    2.0567   19.5046 C.ar      1 LIG        -0.1150 
      9 C18         4.5851    1.6191   18.4729 C.ar      1 LIG        -0.1150 
     10 C17         5.7166    0.8370   18.7799 C.ar      1 LIG         0.2502 
     11 N4          6.6990    0.2954   17.9807 N.2       1 LIG        -0.4222 
     12 N3          7.5639   -0.2963   18.7391 N.2       1 LIG         0.0816 
     13 N1          9.1857    0.3566   23.0725 N.am      1 LIG        -0.0317 
     14 C5          9.1303   -0.9086   23.7059 C.ar      1 LIG        -0.0383 
     15 C4          8.2313   -1.1240   24.7652 C.ar      1 LIG        -0.1150 
     16 C3          8.1672   -2.3784   25.3941 C.ar      1 LIG        -0.1150 
     17 C6          9.9728   -1.9544   23.2803 C.ar      1 LIG        -0.1150 
     18 C7          9.9143   -3.2038   23.9190 C.ar      1 LIG        -0.1150 
     19 C2          9.0084   -3.4404   24.9845 C.ar      1 LIG         0.2100 
     20 N           8.9544   -4.6932   25.6308 N.pl3     1 LIG        -0.6300 
     21 C1          9.8199   -5.7634   25.1721 C.3       1 LIG         0.0300 
     22 C           7.8587   -5.0099   26.5375 C.3       1 LIG         0.0300 
     23 C8          9.7361    1.4841   23.8387 C.3       1 LIG         0.0650 
     24 C9         11.1810    1.7740   23.4737 C.ar      1 LIG        -0.1150 
     25 C14        11.5325    2.9910   22.8539 C.ar      1 LIG        -0.1150 
     26 C13        12.8628    3.2228   22.4570 C.ar      1 LIG         0.1800 
     27 CL         13.2998    4.7125   21.7103 Cl        1 LIG        -0.1800 
     28 C12        13.8390    2.2324   22.6646 C.ar      1 LIG        -0.1150 
     29 C11        13.4979    1.0250   23.2997 C.ar      1 LIG        -0.1150 
     30 C10        12.1738    0.8047   23.7185 C.ar      1 LIG        -0.1150 
     31 H161        7.3942   -1.1863   21.7903 H         1 LIG         0.0600 
     32 H162        8.7613   -1.3297   20.6899 H         1 LIG         0.0600 
     33 HC21        5.3564    0.7008   22.1943 H         1 LIG         0.1150 
     34 HC20        3.3316    2.0551   21.6314 H         1 LIG         0.1150 
     35 HC19        2.8711    2.6606   19.2584 H         1 LIG         0.1150 
     36 HC18        4.3835    1.8914   17.4481 H         1 LIG         0.1150 
     37 HC4         7.5835   -0.3298   25.1011 H         1 LIG         0.1150 
     38 HC3         7.4648   -2.4947   26.2046 H         1 LIG         0.1150 
     39 HC6        10.6720   -1.7998   22.4707 H         1 LIG         0.1150 
     40 HC7        10.5910   -3.9677   23.5735 H         1 LIG         0.1150 
     41 H1_1        9.6757   -6.6577   25.7698 H         1 LIG         0.0600 
     42 H1_2        9.6079   -6.0199   24.1344 H         1 LIG         0.0600 
     43 H1_3       10.8663   -5.4730   25.2643 H         1 LIG         0.0600 
     44 HXT1        7.9601   -6.0135   26.9499 H         1 LIG         0.0600 
     45 HXT2        7.8379   -4.3191   27.3769 H         1 LIG         0.0600 
     46 HXT3        6.9025   -4.9548   26.0161 H         1 LIG         0.0600 
     47 H8_1        9.6943    1.2718   24.9085 H         1 LIG         0.0600 
     48 H8_2        9.1247    2.3771   23.6960 H         1 LIG         0.0600 
     49 HC14       10.7793    3.7400   22.6659 H         1 LIG         0.1150 
     50 HC12       14.8539    2.4006   22.3385 H         1 LIG         0.1150 
     51 HC11       14.2555    0.2748   23.4627 H         1 LIG         0.1150 
     52 HC10       11.9109   -0.1152   24.2152 H         1 LIG         0.1150 
@<TRIPOS>BOND
     1    1    2 2    
     2    2    3 1    
     3    2   13 am   BACKBONE|DICT|INTERRES
     4    3    4 1    
     5    3   31 1    
     6    3   32 1    
     7    4    5 ar   
     8    4   12 ar   
     9    5    6 ar   
    10    5   10 ar   
    11    6    7 ar   
    12    6   33 1    
    13    7    8 ar   
    14    7   34 1    
    15    8    9 ar   
    16    8   35 1    
    17    9   10 ar   
    18    9   36 1    
    19   10   11 ar   
    20   11   12 ar   
    21   13   14 1    
    22   13   23 1    
    23   14   15 ar   
    24   14   17 ar   
    25   15   16 ar   
    26   15   37 1    
    27   16   19 ar   
    28   16   38 1    
    29   17   18 ar   
    30   17   39 1    
    31   18   19 ar   
    32   18   40 1    
    33   19   20 1    
    34   20   21 1    
    35   20   22 1    
    36   21   41 1    
    37   21   42 1    
    38   21   43 1    
    39   22   44 1    
    40   22   45 1    
    41   22   46 1    
    42   23   24 1    
    43   23   47 1    
    44   23   48 1    
    45   24   25 ar   
    46   24   30 ar   
    47   25   26 ar   
    48   25   49 1    
    49   26   27 1    
    50   26   28 ar   
    51   28   29 ar   
    52   28   50 1    
    53   29   30 ar   
    54   29   51 1    
    55   30   52 1    
@<TRIPOS>SUBSTRUCTURE
     1 LIG         1 GROUP             0 A     ****    0 ROOT    
