@<TRIPOS>MOLECULE
Mpro-x12073_ligand
42   45    1
SMALL
USER_CHARGES


@<TRIPOS>ATOM
      1 O1          9.1004    1.3861   21.2847 O.2       1 LIG        -0.5000 
      2 C10         8.7271    0.3369   21.8160 C.2       1 LIG         0.5000 
      3 C9          9.4032   -0.1769   23.1014 C.3       1 LIG         0.0550 
      4 C8         10.9060   -0.0866   22.9097 C.ar      1 LIG        -0.1150 
      5 C7         11.5754   -1.0355   22.1038 C.ar      1 LIG        -0.1150 
      6 C6         12.9619   -0.9227   21.8866 C.ar      1 LIG         0.1800 
      7 CL         13.7923   -2.0546   20.8891 Cl        1 LIG        -0.1800 
      8 C5         13.6754    0.1292   22.4814 C.ar      1 LIG        -0.1150 
      9 C4         13.0124    1.0654   23.2882 C.ar      1 LIG        -0.1150 
     10 C3         11.6352    0.9649   23.5212 C.ar      1 LIG         0.0850 
     11 O          11.0750    1.9011   24.3607 O.3       1 LIG        -0.2850 
     12 C2          9.6593    1.9915   24.3929 C.3       1 LIG         0.1400 
     13 C1          8.9937    0.6067   24.3727 C.3       1 LIG        -0.0600 
     14 C           7.4799    0.7251   24.5952 C.3       1 LIG        -0.1800 
     15 N           7.7473   -0.4256   21.3083 N.am      1 LIG        -0.3850 
     16 C11         6.9117    0.0099   20.2574 C.ar      1 LIG        -0.4271 
     17 C19         5.6515    0.5986   20.5062 C.ar      1 LIG         0.6486 
     18 C18         5.1037    0.6905   21.8045 C.ar      1 LIG        -0.4445 
     19 C17         3.8880    1.3645   22.0126 C.ar      1 LIG        -0.0460 
     20 C16         3.2020    1.9397   20.9269 C.ar      1 LIG        -0.1533 
     21 C15         3.7200    1.8209   19.6236 C.ar      1 LIG        -0.1818 
     22 C14         4.9300    1.1337   19.4134 C.ar      1 LIG        -0.2505 
     23 C13         5.4601    0.9743   18.1205 C.ar      1 LIG         0.3967 
     24 N1          6.6381    0.3651   17.8822 N.ar      1 LIG        -0.6841 
     25 C12         7.3573   -0.0853   18.9254 C.ar      1 LIG         0.4845 
     26 HC9         9.1433   -1.2279   23.2390 H         1 LIG         0.0600 
     27 HC7        11.0235   -1.8439   21.6467 H         1 LIG         0.1150 
     28 HC5        14.7280    0.2501   22.3048 H         1 LIG         0.1150 
     29 HC4        13.5534    1.8938   23.7060 H         1 LIG         0.1150 
     30 H2_1        9.3189    2.6164   23.5669 H         1 LIG         0.0300 
     31 H2_2        9.3830    2.5202   25.3045 H         1 LIG         0.0300 
     32 HC1         9.3892    0.0520   25.2254 H         1 LIG         0.0600 
     33 HXT1        7.2699    1.1111   25.5918 H         1 LIG         0.0600 
     34 HXT2        7.0263    1.4156   23.8851 H         1 LIG         0.0600 
     35 HXT3        6.9892   -0.2441   24.5086 H         1 LIG         0.0600 
     36 HN          7.4753   -1.2652   21.8052 H         1 LIG         0.3000 
     37 HC18        5.6073    0.2485   22.6470 H         1 LIG         0.2009 
     38 HC17        3.4803    1.4376   23.0095 H         1 LIG         0.1382 
     39 HC16        2.2745    2.4655   21.0929 H         1 LIG         0.1414 
     40 HC15        3.1917    2.2625   18.7908 H         1 LIG         0.1598 
     41 HC13        4.9415    1.3579   17.2556 H         1 LIG         0.0566 
     42 HC12        8.3207   -0.5126   18.6912 H         1 LIG         0.0456 
@<TRIPOS>BOND
     1    1    2 2    
     2    2    3 1    
     3    2   15 am   BACKBONE|DICT|INTERRES
     4    3    4 1    
     5    3   13 1    
     6    3   26 1    
     7    4    5 ar   
     8    4   10 ar   
     9    5    6 ar   
    10    5   27 1    
    11    6    7 1    
    12    6    8 ar   
    13    8    9 ar   
    14    8   28 1    
    15    9   10 ar   
    16    9   29 1    
    17   10   11 1    
    18   11   12 1    
    19   12   13 1    
    20   12   30 1    
    21   12   31 1    
    22   13   14 1    
    23   13   32 1    
    24   14   33 1    
    25   14   34 1    
    26   14   35 1    
    27   15   16 1    
    28   15   36 1    
    29   16   17 ar   
    30   16   25 ar   
    31   17   18 ar   
    32   17   22 ar   
    33   18   19 ar   
    34   18   37 1    
    35   19   20 ar   
    36   19   38 1    
    37   20   21 ar   
    38   20   39 1    
    39   21   22 ar   
    40   21   40 1    
    41   22   23 ar   
    42   23   24 ar   
    43   23   41 1    
    44   24   25 ar   
    45   25   42 1    
@<TRIPOS>SUBSTRUCTURE
     1 LIG         1 GROUP             0 A     ****    0 ROOT    
