@<TRIPOS>MOLECULE
Mpro-x12696_ligand
40   43    1
SMALL
USER_CHARGES


@<TRIPOS>ATOM
      1 CL         13.8140   -1.8569   20.8967 Cl        1 LIG        -0.1800 
      2 C13        12.8383   -0.9262   21.9656 C.ar      1 LIG         0.1800 
      3 C12        13.4185    0.0981   22.7333 C.ar      1 LIG        -0.1150 
      4 C11        12.6303    0.8276   23.6411 C.ar      1 LIG        -0.1150 
      5 C14        11.4598   -1.1861   22.0705 C.ar      1 LIG        -0.1150 
      6 C15        10.6605   -0.4229   22.9457 C.ar      1 LIG        -0.1150 
      7 C10        11.2627    0.5416   23.7865 C.ar      1 LIG         0.0850 
      8 O2         10.5404    1.2068   24.7461 O.3       1 LIG        -0.2850 
      9 C9          9.4547    0.4517   25.2673 C.3       1 LIG         0.1400 
     10 C8          8.4678    0.1030   24.1495 C.3       1 LIG        -0.1200 
     11 C7          9.1433   -0.5751   22.9329 C.3       1 LIG         0.0550 
     12 C6          8.5958    0.0514   21.6397 C.2       1 LIG         0.5000 
     13 O1          9.1441    1.0346   21.1344 O.2       1 LIG        -0.5000 
     14 N3          7.4933   -0.5137   21.1281 N.am      1 LIG        -0.3850 
     15 C5          6.7601    0.0527   20.0677 C.ar      1 LIG        -0.2070 
     16 C4          7.2951    0.1177   18.7591 C.ar      1 LIG         0.4730 
     17 N2          6.6525    0.6969   17.7129 N.ar      1 LIG        -0.6780 
     18 C3          5.4433    1.2665   17.9177 C.ar      1 LIG         0.4730 
     19 C16         5.4786    0.6143   20.2425 C.ar      1 LIG         0.3770 
     20 N           4.6302    0.7708   21.3538 N.pl3     1 LIG        -0.2572 
     21 C           4.9200    0.3077   22.7052 C.3       1 LIG        -0.1303 
     22 C2          4.8489    1.2280   19.1850 C.ar      1 LIG        -0.2070 
     23 N1          3.6533    1.7553   19.6639 N.pl3     1 LIG        -0.4511 
     24 C1          3.5340    1.4705   20.9740 C.ar      1 LIG         0.8137 
     25 O           2.5895    1.7937   21.6920 O.2       1 LIG        -0.6163 
     26 HC12       14.4684    0.3203   22.6370 H         1 LIG         0.1150 
     27 HC11       13.0765    1.6020   24.2365 H         1 LIG         0.1150 
     28 HC14       11.0066   -1.9571   21.4673 H         1 LIG         0.1150 
     29 H9_1        8.9523    1.0365   26.0371 H         1 LIG         0.0300 
     30 H9_2        9.8324   -0.4512   25.7497 H         1 LIG         0.0300 
     31 H8_1        7.9876    1.0385   23.8561 H         1 LIG         0.0600 
     32 H8_2        7.6672   -0.5303   24.5328 H         1 LIG         0.0600 
     33 HC7         8.9225   -1.6423   22.9401 H         1 LIG         0.0600 
     34 HN3         7.0594   -1.2671   21.6467 H         1 LIG         0.3000 
     35 HC4         8.2721   -0.2902   18.5435 H         1 LIG         0.0120 
     36 HC3         4.9914    1.7745   17.0829 H         1 LIG         0.0120 
     37 HXT1        4.0201    0.2607   23.3194 H         1 LIG         0.0600 
     38 HXT2        5.3507   -0.6913   22.6925 H         1 LIG         0.0600 
     39 HXT3        5.6256    0.9841   23.1874 H         1 LIG         0.0600 
     40 HN1         3.0036    2.2847   19.0984 H         1 LIG         0.2912 
@<TRIPOS>BOND
     1    1    2 1    
     2    2    3 ar   
     3    2    5 ar   
     4    3    4 ar   
     5    3   26 1    
     6    4    7 ar   
     7    4   27 1    
     8    5    6 ar   
     9    5   28 1    
    10    6    7 ar   
    11    6   11 1    
    12    7    8 1    
    13    8    9 1    
    14    9   10 1    
    15    9   29 1    
    16    9   30 1    
    17   10   11 1    
    18   10   31 1    
    19   10   32 1    
    20   11   12 1    
    21   11   33 1    
    22   12   13 2    
    23   12   14 am   BACKBONE|DICT|INTERRES
    24   14   15 1    
    25   14   34 1    
    26   15   16 ar   
    27   15   19 ar   
    28   16   17 ar   
    29   16   35 1    
    30   17   18 ar   
    31   18   22 ar   
    32   18   36 1    
    33   19   20 ar   
    34   19   22 ar   
    35   20   21 1    
    36   20   24 ar   
    37   21   37 1    
    38   21   38 1    
    39   21   39 1    
    40   22   23 ar   
    41   23   24 ar   
    42   23   40 1    
    43   24   25 2    
@<TRIPOS>SUBSTRUCTURE
     1 LIG         1 GROUP             0 A     ****    0 ROOT    
