@<TRIPOS>MOLECULE
Mpro-x11742_ligand
31   33    1
SMALL
USER_CHARGES


@<TRIPOS>ATOM
      1 O           8.8217    0.8890   21.0990 O.2       1 LIG        -0.5000 
      2 C6          8.2694   -0.1571   21.4498 C.2       1 LIG         0.5000 
      3 C5          8.7897   -0.9662   22.6450 C.3       1 LIG        -0.0050 
      4 C4         10.2666   -0.7029   22.8513 C.ar      1 LIG        -0.1150 
      5 C3         10.6980    0.3184   23.7207 C.ar      1 LIG        -0.1150 
      6 C2         12.0654    0.6382   23.8053 C.ar      1 LIG        -0.1150 
      7 C1         13.0016   -0.0607   23.0193 C.ar      1 LIG        -0.1150 
      8 C13        11.2099   -1.4333   22.1073 C.ar      1 LIG        -0.1150 
      9 C          12.5722   -1.0992   22.1714 C.ar      1 LIG         0.1800 
     10 CL         13.6986   -1.9565   21.1945 Cl        1 LIG        -0.1800 
     11 N           7.1897   -0.6485   20.8317 N.am      1 LIG        -0.3850 
     12 C7          6.5115    0.0243   19.8011 C.ar      1 LIG        -0.2070 
     13 C12         5.3758    0.7958   20.0761 C.ar      1 LIG         0.1306 
     14 N3          4.6638    1.1178   21.2168 N.pl3     1 LIG        -0.2570 
     15 C11         3.6784    1.9362   20.8190 C.ar      1 LIG         0.2750 
     16 N2          3.6262    2.2104   19.5173 N.2       1 LIG        -0.5630 
     17 C10         4.7075    1.4929   19.0314 C.ar      1 LIG         0.0304 
     18 C9          5.2193    1.3649   17.7175 C.ar      1 LIG         0.4730 
     19 N1          6.3101    0.6029   17.4634 N.ar      1 LIG        -0.6780 
     20 C8          6.9417   -0.0438   18.4661 C.ar      1 LIG         0.4730 
     21 H5_1        8.6312   -2.0325   22.4779 H         1 LIG         0.0600 
     22 H5_2        8.2299   -0.6925   23.5400 H         1 LIG         0.0600 
     23 HC3         9.9769    0.8798   24.2931 H         1 LIG         0.1150 
     24 HC2        12.3925    1.4353   24.4525 H         1 LIG         0.1150 
     25 HC1        14.0461    0.1998   23.0647 H         1 LIG         0.1150 
     26 HC13       10.8787   -2.2284   21.4603 H         1 LIG         0.1150 
     27 HN          6.7573   -1.4847   21.2075 H         1 LIG         0.3000 
     28 HN3         4.8525    0.8481   22.1741 H         1 LIG         0.3060 
     29 HC11        2.9714    2.3600   21.5160 H         1 LIG         0.0780 
     30 HC9         4.7833    1.8913   16.8852 H         1 LIG         0.0120 
     31 HC8         7.8164   -0.6162   18.1949 H         1 LIG         0.0120 
@<TRIPOS>BOND
     1    1    2 2    
     2    2    3 1    
     3    2   11 am   BACKBONE|DICT|INTERRES
     4    3    4 1    
     5    3   21 1    
     6    3   22 1    
     7    4    5 ar   
     8    4    8 ar   
     9    5    6 ar   
    10    5   23 1    
    11    6    7 ar   
    12    6   24 1    
    13    7    9 ar   
    14    7   25 1    
    15    8    9 ar   
    16    8   26 1    
    17    9   10 1    
    18   11   12 1    
    19   11   27 1    
    20   12   13 ar   
    21   12   20 ar   
    22   13   14 ar   
    23   13   17 ar   
    24   14   15 ar   
    25   14   28 1    
    26   15   16 ar   
    27   15   29 1    
    28   16   17 ar   
    29   17   18 ar   
    30   18   19 ar   
    31   18   30 1    
    32   19   20 ar   
    33   20   31 1    
@<TRIPOS>SUBSTRUCTURE
     1 LIG         1 GROUP             0 A     ****    0 ROOT    
