@<TRIPOS>MOLECULE
Mpro-x1386_ligand
32   33    1
SMALL
USER_CHARGES


@<TRIPOS>ATOM
      1 N           6.8538   -2.1950   20.9243 N.am      1 LIG        -0.1400 
      2 C           6.5311   -1.8914   18.4716 C.3       1 LIG        -0.1800 
      3 O           5.8049   -3.7807   19.6936 O.2       1 LIG        -0.5000 
      4 C1          6.3800   -2.6962   19.7611 C.2       1 LIG         0.5000 
      5 C10         7.7321   -1.0285   21.0458 C.3       1 LIG        -0.0500 
      6 C2          6.6065   -2.8298   22.2251 C.3       1 LIG        -0.0500 
      7 C3          7.9352   -3.2430   22.8871 C.3       1 LIG         0.1500 
      8 C4         10.1604   -2.4775   23.6386 C.3       1 LIG         0.2650 
      9 C5         11.1277   -1.3327   23.6758 C.2       1 LIG        -0.0677 
     10 C6         12.2239   -1.1997   22.7677 C.2       1 LIG        -0.0738 
     11 C7         12.9333   -0.0425   22.9423 C.2       1 LIG        -0.3255 
     12 C8         11.0411   -0.2716   24.5425 C.2       1 LIG        -0.3255 
     13 C9          9.0860   -1.4921   21.5977 C.3       1 LIG         0.1500 
     14 N1          8.9015   -2.1167   22.9358 N.4       1 LIG        -0.1000 
     15 S          12.2630    0.9291   24.2210 S.3       1 LIG         0.0328 
     16 HXT1        6.2988   -2.5205   17.6173 H         1 LIG         0.0600 
     17 HXT2        5.8484   -1.0452   18.4611 H         1 LIG         0.0600 
     18 HXT3        7.5456   -1.5288   18.3241 H         1 LIG         0.0600 
     19 H101        7.2781   -0.3125   21.7327 H         1 LIG         0.0600 
     20 H102        7.8838   -0.4745   20.1224 H         1 LIG         0.0600 
     21 H2_1        5.9454   -3.6945   22.1582 H         1 LIG         0.0600 
     22 H2_2        6.0907   -2.1166   22.8687 H         1 LIG         0.0600 
     23 H3_1        8.3770   -4.0803   22.3453 H         1 LIG         0.0600 
     24 H3_2        7.7427   -3.5845   23.9007 H         1 LIG         0.0600 
     25 H4_1        9.9243   -2.7976   24.6540 H         1 LIG         0.0600 
     26 H4_2       10.6171   -3.3348   23.1469 H         1 LIG         0.0600 
     27 HC6        12.4425   -1.9388   22.0113 H         1 LIG         0.1211 
     28 HC7        13.7971    0.3029   22.3928 H         1 LIG         0.2618 
     29 HC8        10.3205   -0.1047   25.3311 H         1 LIG         0.2618 
     30 H9_1        9.7440   -0.6275   21.6489 H         1 LIG         0.0600 
     31 H9_2        9.5520   -2.2064   20.9177 H         1 LIG         0.0600 
     32 HN1         8.4711   -1.4014   23.5046 H         1 LIG         0.2900 
@<TRIPOS>BOND
     1    1    4 am   BACKBONE|DICT|INTERRES
     2    1    5 1    
     3    1    6 1    
     4    2    4 1    
     5    2   16 1    
     6    2   17 1    
     7    2   18 1    
     8    3    4 2    
     9    5   13 1    
    10    5   19 1    
    11    5   20 1    
    12    6    7 1    
    13    6   21 1    
    14    6   22 1    
    15    7   14 1    
    16    7   23 1    
    17    7   24 1    
    18    8    9 1    
    19    8   14 1    
    20    8   25 1    
    21    8   26 1    
    22    9   10 1    
    23    9   12 2    
    24   10   11 2    
    25   10   27 1    
    26   11   15 1    
    27   11   28 1    
    28   12   15 1    
    29   12   29 1    
    30   13   14 1    
    31   13   30 1    
    32   13   31 1    
    33   14   32 1    
@<TRIPOS>SUBSTRUCTURE
     1 LIG         1 GROUP             0 A     ****    0 ROOT    
