@<TRIPOS>MOLECULE
Mpro-x12674_ligand
41   44    1
SMALL
USER_CHARGES


@<TRIPOS>ATOM
      1 O           8.5459    1.2073   21.1234 O.2       1 LIG        -0.5000 
      2 C10         8.0154    0.2433   21.6810 C.2       1 LIG         0.5000 
      3 C6          8.5019   -0.1421   23.0930 C.3       1 LIG         0.0550 
      4 C3          9.9942   -0.4351   23.0994 C.ar      1 LIG        -0.1150 
      5 C2         10.8218    0.1925   24.0562 C.ar      1 LIG        -0.1150 
      6 C1         12.1819   -0.1488   24.1414 C.ar      1 LIG        -0.1150 
      7 C4         10.5514   -1.3706   22.1989 C.ar      1 LIG        -0.1150 
      8 C5         11.9056   -1.7220   22.2964 C.ar      1 LIG        -0.1150 
      9 C          12.7053   -1.1321   23.2858 C.ar      1 LIG         0.1800 
     10 CL         14.3165   -1.6667   23.4751 Cl        1 LIG        -0.1800 
     11 N           7.0349   -0.4842   21.0885 N.am      1 LIG        -0.1550 
     12 C9          6.4792   -1.7341   21.6247 C.3       1 LIG        -0.0500 
     13 C8          7.2993   -2.3629   22.7547 C.3       1 LIG        -0.1200 
     14 C7          7.6992   -1.2804   23.7556 C.3       1 LIG        -0.1200 
     15 C11         6.3216    0.0948   20.0121 C.ar      1 LIG        -0.4271 
     16 C19         5.2152    0.9505   20.2381 C.ar      1 LIG         0.6486 
     17 C18         4.7318    1.2442   21.5340 C.ar      1 LIG        -0.4445 
     18 C17         3.6380    2.1123   21.7031 C.ar      1 LIG        -0.0460 
     19 C16         3.0248    2.6992   20.5820 C.ar      1 LIG        -0.1533 
     20 C15         3.4965    2.4136   19.2871 C.ar      1 LIG        -0.1818 
     21 C14         4.5850    1.5368   19.1158 C.ar      1 LIG        -0.2505 
     22 C13         5.0788    1.2329   17.8334 C.ar      1 LIG         0.3967 
     23 N1          6.1163    0.4013   17.6171 N.ar      1 LIG        -0.6841 
     24 C12         6.7238   -0.1513   18.6861 C.ar      1 LIG         0.4845 
     25 HC6         8.3526    0.7481   23.7057 H         1 LIG         0.0600 
     26 HC2        10.4116    0.9129   24.7496 H         1 LIG         0.1150 
     27 HC1        12.8153    0.3104   24.8845 H         1 LIG         0.1150 
     28 HC4         9.9422   -1.8458   21.4452 H         1 LIG         0.1150 
     29 HC5        12.3221   -2.4601   21.6273 H         1 LIG         0.1150 
     30 H9_1        6.3510   -2.4498   20.8145 H         1 LIG         0.0600 
     31 H9_2        5.4784   -1.5242   21.9946 H         1 LIG         0.0600 
     32 H8_1        8.1800   -2.8618   22.3532 H         1 LIG         0.0600 
     33 H8_2        6.7133   -3.1369   23.2513 H         1 LIG         0.0600 
     34 H7_1        6.7891   -0.8637   24.1904 H         1 LIG         0.0600 
     35 H7_2        8.2566   -1.7122   24.5880 H         1 LIG         0.0600 
     36 HC18        5.1878    0.8140   22.4127 H         1 LIG         0.2009 
     37 HC17        3.2736    2.3335   22.6954 H         1 LIG         0.1382 
     38 HC16        2.1964    3.3770   20.7203 H         1 LIG         0.1414 
     39 HC15        3.0271    2.8764   18.4305 H         1 LIG         0.1598 
     40 HC13        4.6481    1.6850   16.9552 H         1 LIG         0.0566 
     41 HC12        7.5664   -0.7934   18.4759 H         1 LIG         0.0456 
@<TRIPOS>BOND
     1    1    2 2    
     2    2    3 1    
     3    2   11 am   BACKBONE|DICT|INTERRES
     4    3    4 1    
     5    3   14 1    
     6    3   25 1    
     7    4    5 ar   
     8    4    7 ar   
     9    5    6 ar   
    10    5   26 1    
    11    6    9 ar   
    12    6   27 1    
    13    7    8 ar   
    14    7   28 1    
    15    8    9 ar   
    16    8   29 1    
    17    9   10 1    
    18   11   12 1    
    19   11   15 1    
    20   12   13 1    
    21   12   30 1    
    22   12   31 1    
    23   13   14 1    
    24   13   32 1    
    25   13   33 1    
    26   14   34 1    
    27   14   35 1    
    28   15   16 ar   
    29   15   24 ar   
    30   16   17 ar   
    31   16   21 ar   
    32   17   18 ar   
    33   17   36 1    
    34   18   19 ar   
    35   18   37 1    
    36   19   20 ar   
    37   19   38 1    
    38   20   21 ar   
    39   20   39 1    
    40   21   22 ar   
    41   22   23 ar   
    42   22   40 1    
    43   23   24 ar   
    44   24   41 1    
@<TRIPOS>SUBSTRUCTURE
     1 LIG         1 GROUP             0 A     ****    0 ROOT    
