@<TRIPOS>MOLECULE
Mpro-x10959_ligand
34   36    1
SMALL
USER_CHARGES


@<TRIPOS>ATOM
      1 O           8.7936    0.7499   20.9852 O.2       1 LIG        -0.5000 
      2 C6          8.2395   -0.2873   21.3568 C.2       1 LIG         0.5000 
      3 C5          8.7863   -1.1004   22.5363 C.3       1 LIG        -0.0050 
      4 C4         10.2488   -0.7892   22.7655 C.ar      1 LIG        -0.1150 
      5 C3         10.6372    0.2618   23.6208 C.ar      1 LIG        -0.1150 
      6 C2         11.9957    0.6114   23.7298 C.ar      1 LIG        -0.1150 
      7 C1         12.9649   -0.0830   22.9797 C.ar      1 LIG        -0.1150 
      8 C16        11.2241   -1.5114   22.0582 C.ar      1 LIG        -0.1150 
      9 C          12.5757   -1.1449   22.1413 C.ar      1 LIG         0.1800 
     10 CL         13.7313   -1.9864   21.1864 Cl        1 LIG        -0.1800 
     11 N           7.1307   -0.7608   20.7761 N.am      1 LIG        -0.3850 
     12 C7          6.4142   -0.0539   19.7888 C.ar      1 LIG        -0.4271 
     13 C15         5.2844    0.7283   20.1161 C.ar      1 LIG         0.6486 
     14 C14         4.7869    0.8205   21.4347 C.ar      1 LIG        -0.4445 
     15 C13         3.6728    1.6347   21.7098 C.ar      1 LIG        -0.0460 
     16 C12         3.0555    2.3643   20.6763 C.ar      1 LIG        -0.1533 
     17 C11         3.5432    2.2766   19.3596 C.ar      1 LIG        -0.1818 
     18 C10         4.6487    1.4512   19.0792 C.ar      1 LIG        -0.2505 
     19 C9          5.1481    1.3261   17.7690 C.ar      1 LIG         0.3967 
     20 N1          6.2084    0.5579   17.4527 N.ar      1 LIG        -0.6841 
     21 C8          6.8307   -0.1089   18.4453 C.ar      1 LIG         0.4845 
     22 H5_1        8.6585   -2.1681   22.3513 H         1 LIG         0.0600 
     23 H5_2        8.2223   -0.8560   23.4345 H         1 LIG         0.0600 
     24 HC3         9.8909    0.8236   24.1622 H         1 LIG         0.1150 
     25 HC2        12.2899    1.4302   24.3656 H         1 LIG         0.1150 
     26 HC1        14.0027    0.2026   23.0402 H         1 LIG         0.1150 
     27 HC16       10.9249   -2.3250   21.4196 H         1 LIG         0.1150 
     28 HN          6.6990   -1.5940   21.1590 H         1 LIG         0.3000 
     29 HC14        5.2500    0.2759   22.2435 H         1 LIG         0.2009 
     30 HC13        3.2927    1.6987   22.7174 H         1 LIG         0.1382 
     31 HC12        2.2032    2.9913   20.8944 H         1 LIG         0.1414 
     32 HC11        3.0686    2.8409   18.5696 H         1 LIG         0.1598 
     33 HC9         4.7065    1.8757   16.9530 H         1 LIG         0.0566 
     34 HC8         7.6951   -0.6917   18.1616 H         1 LIG         0.0456 
@<TRIPOS>BOND
     1    1    2 2    
     2    2    3 1    
     3    2   11 am   BACKBONE|DICT|INTERRES
     4    3    4 1    
     5    3   22 1    
     6    3   23 1    
     7    4    5 ar   
     8    4    8 ar   
     9    5    6 ar   
    10    5   24 1    
    11    6    7 ar   
    12    6   25 1    
    13    7    9 ar   
    14    7   26 1    
    15    8    9 ar   
    16    8   27 1    
    17    9   10 1    
    18   11   12 1    
    19   11   28 1    
    20   12   13 ar   
    21   12   21 ar   
    22   13   14 ar   
    23   13   18 ar   
    24   14   15 ar   
    25   14   29 1    
    26   15   16 ar   
    27   15   30 1    
    28   16   17 ar   
    29   16   31 1    
    30   17   18 ar   
    31   17   32 1    
    32   18   19 ar   
    33   19   20 ar   
    34   19   33 1    
    35   20   21 ar   
    36   21   34 1    
@<TRIPOS>SUBSTRUCTURE
     1 LIG         1 GROUP             0 A     ****    0 ROOT    
