@<TRIPOS>MOLECULE
Mpro-x12692_ligand
40   43    1
SMALL
USER_CHARGES


@<TRIPOS>ATOM
      1 O           8.9253    0.8160   21.0672 O.2       1 LIG        -0.5000 
      2 C7          8.4104   -0.2465   21.4262 C.2       1 LIG         0.5000 
      3 C6          8.9612   -1.0329   22.6322 C.3       1 LIG         0.0550 
      4 C5          8.1769   -0.6913   23.9105 C.3       1 LIG        -0.1200 
      5 C4          8.4876    0.7348   24.3856 C.3       1 LIG         0.0800 
      6 N           9.9147    0.9396   24.5871 N.pl3     1 LIG        -0.7800 
      7 C17        10.4339   -0.7013   22.8271 C.ar      1 LIG        -0.1150 
      8 C3         10.8336    0.3143   23.7314 C.ar      1 LIG         0.2000 
      9 C2         12.1871    0.7047   23.7839 C.ar      1 LIG        -0.1150 
     10 C1         13.1397    0.0777   22.9574 C.ar      1 LIG        -0.1150 
     11 C18        11.4013   -1.3758   22.0604 C.ar      1 LIG        -0.1150 
     12 C          12.7475   -0.9803   22.1156 C.ar      1 LIG         0.1800 
     13 CL         13.8909   -1.7662   21.0990 Cl        1 LIG        -0.1800 
     14 N1          7.3454   -0.7771   20.8090 N.am      1 LIG        -0.3850 
     15 C8          6.5958   -0.0810   19.8352 C.ar      1 LIG        -0.4271 
     16 C16         5.4455    0.6675   20.1763 C.ar      1 LIG         0.6486 
     17 C15         4.9662    0.7515   21.5010 C.ar      1 LIG        -0.4445 
     18 C14         3.8363    1.5364   21.7929 C.ar      1 LIG        -0.0460 
     19 C13         3.1741    2.2390   20.7680 C.ar      1 LIG        -0.1533 
     20 C12         3.6418    2.1624   19.4442 C.ar      1 LIG        -0.1818 
     21 C11         4.7711    1.3744   19.1512 C.ar      1 LIG        -0.2505 
     22 C10         5.2626    1.2816   17.8392 C.ar      1 LIG         0.3967 
     23 N2          6.3516    0.5603   17.5180 N.ar      1 LIG        -0.6841 
     24 C9          7.0024   -0.1048   18.4885 C.ar      1 LIG         0.4845 
     25 HC6         8.8688   -2.1003   22.4261 H         1 LIG         0.0600 
     26 H5_1        8.4600   -1.3899   24.6978 H         1 LIG         0.0600 
     27 H5_2        7.1041   -0.8181   23.7615 H         1 LIG         0.0600 
     28 H4_1        7.9746    0.9319   25.3268 H         1 LIG         0.0600 
     29 H4_2        8.1224    1.4730   23.6707 H         1 LIG         0.0600 
     30 HN         10.2062    1.7722   25.0882 H         1 LIG         0.3800 
     31 HC2        12.4987    1.4954   24.4489 H         1 LIG         0.1150 
     32 HC1        14.1695    0.3974   22.9811 H         1 LIG         0.1150 
     33 HC18       11.1021   -2.1712   21.3960 H         1 LIG         0.1150 
     34 HN1         6.9420   -1.6219   21.1959 H         1 LIG         0.3000 
     35 HC15        5.4630    0.2295   22.3045 H         1 LIG         0.2009 
     36 HC14        3.4839    1.6057   22.8099 H         1 LIG         0.1382 
     37 HC13        2.3129    2.8463   21.0034 H         1 LIG         0.1414 
     38 HC12        3.1412    2.7142   18.6608 H         1 LIG         0.1598 
     39 HC10        4.7956    1.8197   17.0289 H         1 LIG         0.0566 
     40 HC9         7.8770   -0.6571   18.1792 H         1 LIG         0.0456 
@<TRIPOS>BOND
     1    1    2 2    
     2    2    3 1    
     3    2   14 am   BACKBONE|DICT|INTERRES
     4    3    4 1    
     5    3    7 1    
     6    3   25 1    
     7    4    5 1    
     8    4   26 1    
     9    4   27 1    
    10    5    6 1    
    11    5   28 1    
    12    5   29 1    
    13    6    8 1    
    14    6   30 1    
    15    7    8 ar   
    16    7   11 ar   
    17    8    9 ar   
    18    9   10 ar   
    19    9   31 1    
    20   10   12 ar   
    21   10   32 1    
    22   11   12 ar   
    23   11   33 1    
    24   12   13 1    
    25   14   15 1    
    26   14   34 1    
    27   15   16 ar   
    28   15   24 ar   
    29   16   17 ar   
    30   16   21 ar   
    31   17   18 ar   
    32   17   35 1    
    33   18   19 ar   
    34   18   36 1    
    35   19   20 ar   
    36   19   37 1    
    37   20   21 ar   
    38   20   38 1    
    39   21   22 ar   
    40   22   23 ar   
    41   22   39 1    
    42   23   24 ar   
    43   24   40 1    
@<TRIPOS>SUBSTRUCTURE
     1 LIG         1 GROUP             0 A     ****    0 ROOT    
