@<TRIPOS>MOLECULE
Mpro-x0755_ligand
34   35    1
SMALL
USER_CHARGES


@<TRIPOS>ATOM
      1 C11         7.4614   -3.3445   20.9424 C.3       1 LIG        -0.1800 
      2 C10         6.7087   -4.6728   20.9201 C.2       1 LIG         0.5000 
      3 O2          6.0411   -4.9821   19.9342 O.2       1 LIG        -0.5000 
      4 N1          6.7609   -5.4288   22.0289 N.am      1 LIG        -0.1400 
      5 C7          5.7407   -6.4152   22.3604 C.3       1 LIG        -0.0133 
      6 C6          4.8353   -5.8363   23.4649 C.3       1 LIG         0.0588 
      7 C8          7.6351   -5.1595   23.1651 C.3       1 LIG        -0.0133 
      8 C9          6.7926   -4.4818   24.2532 C.3       1 LIG         0.0588 
      9 N           5.6390   -5.3314   24.5998 N.pl3     1 LIG        -0.5376 
     10 S           4.9340   -5.2297   26.1742 S.o2      1 LIG         0.8327 
     11 O           4.2296   -6.4981   26.4111 O.2       1 LIG        -0.4680 
     12 O1          5.9812   -4.7956   27.1126 O.2       1 LIG        -0.4680 
     13 C5          3.7291   -3.9049   25.9957 C.ar      1 LIG         0.1567 
     14 C           2.3674   -4.2078   25.7599 C.ar      1 LIG         0.2200 
     15 F           1.9456   -5.4847   25.6024 F         1 LIG        -0.2200 
     16 C4          4.1399   -2.5584   26.1211 C.ar      1 LIG         0.2200 
     17 F1          5.4402   -2.2375   26.3127 F         1 LIG        -0.2200 
     18 C3          3.1856   -1.5258   26.0564 C.ar      1 LIG        -0.1150 
     19 C2          1.8275   -1.8299   25.8474 C.ar      1 LIG        -0.1150 
     20 C1          1.4218   -3.1680   25.6873 C.ar      1 LIG        -0.1150 
     21 H111        7.2961   -2.8350   21.8865 H         1 LIG         0.0600 
     22 H112        8.5323   -3.5012   20.8290 H         1 LIG         0.0600 
     23 H113        7.1354   -2.6514   20.1764 H         1 LIG         0.0600 
     24 H7_1        6.2145   -7.3383   22.6943 H         1 LIG         0.0600 
     25 H7_2        5.1358   -6.6793   21.4962 H         1 LIG         0.0600 
     26 H6_1        4.1452   -6.6042   23.8099 H         1 LIG         0.0733 
     27 H6_2        4.2285   -5.0205   23.0720 H         1 LIG         0.0733 
     28 H8_1        8.5005   -4.5451   22.9162 H         1 LIG         0.0600 
     29 H8_2        8.0634   -6.0936   23.5246 H         1 LIG         0.0600 
     30 H9_1        6.4289   -3.5094   23.9249 H         1 LIG         0.0733 
     31 H9_2        7.4139   -4.3088   25.1268 H         1 LIG         0.0733 
     32 HC3         3.4993   -0.4973   26.1640 H         1 LIG         0.1150 
     33 HC2         1.0988   -1.0341   25.7959 H         1 LIG         0.1150 
     34 HC1         0.3807   -3.3988   25.5122 H         1 LIG         0.1150 
@<TRIPOS>BOND
     1    1    2 1    
     2    1   21 1    
     3    1   22 1    
     4    1   23 1    
     5    2    3 2    
     6    2    4 am   BACKBONE|DICT|INTERRES
     7    4    5 1    
     8    4    7 1    
     9    5    6 1    
    10    5   24 1    
    11    5   25 1    
    12    6    9 1    
    13    6   26 1    
    14    6   27 1    
    15    7    8 1    
    16    7   28 1    
    17    7   29 1    
    18    8    9 1    
    19    8   30 1    
    20    8   31 1    
    21    9   10 1    
    22   10   11 2    
    23   10   12 2    
    24   10   13 1    
    25   13   14 ar   
    26   13   16 ar   
    27   14   15 1    
    28   14   20 ar   
    29   16   17 1    
    30   16   18 ar   
    31   18   19 ar   
    32   18   32 1    
    33   19   20 ar   
    34   19   33 1    
    35   20   34 1    
@<TRIPOS>SUBSTRUCTURE
     1 LIG         1 GROUP             0 A     ****    0 ROOT    
