@<TRIPOS>MOLECULE
Mpro-x11543_ligand
35   37    1
SMALL
USER_CHARGES


@<TRIPOS>ATOM
      1 O           8.8981    0.8815   21.0785 O.2       1 LIG        -0.5000 
      2 C6          8.3672   -0.1724   21.4363 C.2       1 LIG         0.5000 
      3 C5          8.9132   -0.9711   22.6266 C.3       1 LIG        -0.0050 
      4 C4         10.3954   -0.7229   22.8007 C.ar      1 LIG        -0.1150 
      5 C3         10.8592    0.2772   23.6763 C.ar      1 LIG        -0.1150 
      6 C2         12.2334    0.5740   23.7409 C.ar      1 LIG        -0.1150 
      7 C1         13.1429   -0.1334   22.9305 C.ar      1 LIG        -0.1150 
      8 C15        11.3114   -1.4607   22.0334 C.ar      1 LIG        -0.1150 
      9 C          12.6794   -1.1536   22.0783 C.ar      1 LIG         0.1800 
     10 CL         13.7642   -2.0159   21.0598 Cl        1 LIG        -0.1800 
     11 N           7.2875   -0.6870   20.8357 N.am      1 LIG        -0.3850 
     12 C7          6.5483   -0.0237   19.8349 C.ar      1 LIG        -0.2070 
     13 C11         5.3596    0.6720   20.1524 C.ar      1 LIG         0.1770 
     14 C12         4.8631    0.7513   21.5633 C.3       1 LIG         0.0550 
     15 C14         3.9528    1.8533   22.0515 C.3       1 LIG        -0.1200 
     16 C13         5.3954    1.8127   22.4951 C.3       1 LIG        -0.1200 
     17 C10         4.6681    1.3053   19.0995 C.ar      1 LIG        -0.4470 
     18 C9          5.1807    1.2098   17.7950 C.ar      1 LIG         0.4730 
     19 N1          6.3026    0.5318   17.4927 N.ar      1 LIG        -0.6780 
     20 C8          6.9756   -0.0678   18.4952 C.ar      1 LIG         0.4730 
     21 H5_1        8.7540   -2.0382   22.4707 H         1 LIG         0.0600 
     22 H5_2        8.3718   -0.6909   23.5306 H         1 LIG         0.0600 
     23 HC3        10.1560    0.8329   24.2728 H         1 LIG         0.1150 
     24 HC2        12.5823    1.3572   24.3944 H         1 LIG         0.1150 
     25 HC1        14.1916    0.1115   22.9585 H         1 LIG         0.1150 
     26 HC15       10.9554   -2.2429   21.3840 H         1 LIG         0.1150 
     27 HN          6.8826   -1.5262   21.2344 H         1 LIG         0.3000 
     28 HC12        4.7040   -0.2436   21.9728 H         1 LIG         0.0600 
     29 H141        3.2012    1.5849   22.7885 H         1 LIG         0.0600 
     30 H142        3.6762    2.6609   21.3768 H         1 LIG         0.0600 
     31 H131        6.0654    2.5629   22.0784 H         1 LIG         0.0600 
     32 H132        5.5895    1.5309   23.5278 H         1 LIG         0.0600 
     33 HC10        3.7627    1.8659   19.2735 H         1 LIG         0.1550 
     34 HC9         4.6918    1.7105   16.9762 H         1 LIG         0.0120 
     35 HC8         7.8785   -0.5934   18.2207 H         1 LIG         0.0120 
@<TRIPOS>BOND
     1    1    2 2    
     2    2    3 1    
     3    2   11 am   BACKBONE|DICT|INTERRES
     4    3    4 1    
     5    3   21 1    
     6    3   22 1    
     7    4    5 ar   
     8    4    8 ar   
     9    5    6 ar   
    10    5   23 1    
    11    6    7 ar   
    12    6   24 1    
    13    7    9 ar   
    14    7   25 1    
    15    8    9 ar   
    16    8   26 1    
    17    9   10 1    
    18   11   12 1    
    19   11   27 1    
    20   12   13 ar   
    21   12   20 ar   
    22   13   14 1    
    23   13   17 ar   
    24   14   15 1    
    25   14   16 1    
    26   14   28 1    
    27   15   16 1    
    28   15   29 1    
    29   15   30 1    
    30   16   31 1    
    31   16   32 1    
    32   17   18 ar   
    33   17   33 1    
    34   18   19 ar   
    35   18   34 1    
    36   19   20 ar   
    37   20   35 1    
@<TRIPOS>SUBSTRUCTURE
     1 LIG         1 GROUP             0 A     ****    0 ROOT    
