@<TRIPOS>MOLECULE
Mpro-x12731_ligand
45   48    1
SMALL
USER_CHARGES


@<TRIPOS>ATOM
      1 O1          6.1397   -2.3979   21.0851 O.2       1 LIG        -0.5000 
      2 C10         7.0814   -1.7063   21.4711 C.2       1 LIG         0.5000 
      3 C1          8.0322   -2.2038   22.5918 C.3       1 LIG         0.1150 
      4 C9          8.0311   -1.1957   23.7497 C.ar      1 LIG        -0.1150 
      5 C8          6.8104   -0.6834   24.2526 C.ar      1 LIG        -0.1150 
      6 C7          6.7944    0.3076   25.2456 C.ar      1 LIG         0.1800 
      7 CL          5.2880    0.9595   25.7767 Cl        1 LIG        -0.1800 
      8 C6          8.0056    0.7738   25.7833 C.ar      1 LIG        -0.1150 
      9 C5          9.2261    0.2477   25.3192 C.ar      1 LIG        -0.1150 
     10 C4          9.2510   -0.7334   24.3085 C.ar      1 LIG         0.0850 
     11 O          10.4850   -1.1656   23.8812 O.3       1 LIG        -0.2850 
     12 C3         10.5293   -2.3402   23.0852 C.3       1 LIG         0.1400 
     13 C2          9.4584   -2.3069   21.9918 C.3       1 LIG        -0.1200 
     14 C           7.6305   -3.6187   23.0939 C.3       1 LIG         0.1900 
     15 N           6.3520   -3.7024   23.8232 N.4       1 LIG        -0.3000 
     16 N1          7.3166   -0.4826   20.9767 N.am      1 LIG        -0.3850 
     17 C11         6.5563    0.1282   19.9579 C.ar      1 LIG        -0.4271 
     18 C19         5.3795    0.8649   20.2286 C.ar      1 LIG         0.6486 
     19 C18         4.8461    1.0000   21.5297 C.ar      1 LIG        -0.4445 
     20 C17         3.6748    1.7491   21.7430 C.ar      1 LIG        -0.0460 
     21 C16         3.0333    2.3803   20.6618 C.ar      1 LIG        -0.1533 
     22 C15         3.5652    2.2669   19.3633 C.ar      1 LIG        -0.1818 
     23 C14         4.7267    1.5014   19.1467 C.ar      1 LIG        -0.2505 
     24 C13         5.2712    1.3585   17.8566 C.ar      1 LIG         0.3967 
     25 N2          6.3850    0.6473   17.5969 N.ar      1 LIG        -0.6841 
     26 C12         7.0197    0.0614   18.6307 C.ar      1 LIG         0.4845 
     27 HC8         5.8688   -1.0249   23.8536 H         1 LIG         0.1150 
     28 HC6         7.9999    1.5369   26.5468 H         1 LIG         0.1150 
     29 HC5        10.1563    0.6087   25.7311 H         1 LIG         0.1150 
     30 H3_1       10.4353   -3.2165   23.7222 H         1 LIG         0.0300 
     31 H3_2       11.5169   -2.4048   22.6296 H         1 LIG         0.0300 
     32 H2_1        9.6911   -1.4526   21.3544 H         1 LIG         0.0600 
     33 H2_2        9.5413   -3.1819   21.3491 H         1 LIG         0.0600 
     34 HXT1        8.3992   -4.0429   23.7322 H         1 LIG         0.0600 
     35 HXT2        7.5498   -4.2738   22.2401 H         1 LIG         0.0600 
     36 H__1        6.1290   -4.6729   23.9951 H         1 LIG         0.3300 
     37 H__2        6.4451   -3.2170   24.7065 H         1 LIG         0.3300 
     38 H__3        5.6064   -3.2926   23.2744 H         1 LIG         0.3300 
     39 HN1         8.1286    0.0236   21.3080 H         1 LIG         0.3000 
     40 HC18        5.3298    0.5421   22.3736 H         1 LIG         0.2009 
     41 HC17        3.2746    1.8483   22.7409 H         1 LIG         0.1382 
     42 HC16        2.1392    2.9628   20.8265 H         1 LIG         0.1414 
     43 HC15        3.0814    2.7727   18.5399 H         1 LIG         0.1598 
     44 HC13        4.8241    1.8492   17.0080 H         1 LIG         0.0566 
     45 HC12        7.9301   -0.4678   18.3915 H         1 LIG         0.0456 
@<TRIPOS>BOND
     1    1    2 2    
     2    2    3 1    
     3    2   16 am   BACKBONE|DICT|INTERRES
     4    3    4 1    
     5    3   13 1    
     6    3   14 1    
     7    4    5 ar   
     8    4   10 ar   
     9    5    6 ar   
    10    5   27 1    
    11    6    7 1    
    12    6    8 ar   
    13    8    9 ar   
    14    8   28 1    
    15    9   10 ar   
    16    9   29 1    
    17   10   11 1    
    18   11   12 1    
    19   12   13 1    
    20   12   30 1    
    21   12   31 1    
    22   13   32 1    
    23   13   33 1    
    24   14   15 1    
    25   14   34 1    
    26   14   35 1    
    27   15   36 1    
    28   15   37 1    
    29   15   38 1    
    30   16   17 1    
    31   16   39 1    
    32   17   18 ar   
    33   17   26 ar   
    34   18   19 ar   
    35   18   23 ar   
    36   19   20 ar   
    37   19   40 1    
    38   20   21 ar   
    39   20   41 1    
    40   21   22 ar   
    41   21   42 1    
    42   22   23 ar   
    43   22   43 1    
    44   23   24 ar   
    45   24   25 ar   
    46   24   44 1    
    47   25   26 ar   
    48   26   45 1    
@<TRIPOS>SUBSTRUCTURE
     1 LIG         1 GROUP             0 A     ****    0 ROOT    
