@<TRIPOS>MOLECULE
Mpro-x11609_ligand
38   40    1
SMALL
USER_CHARGES


@<TRIPOS>ATOM
      1 O1          8.8425    0.5384   20.8356 O.2       1 LIG        -0.5000 
      2 C8          8.2772   -0.5117   21.1504 C.2       1 LIG         0.5000 
      3 C7          8.8580   -1.4459   22.2118 C.3       1 LIG        -0.0050 
      4 C6         10.2551   -1.0122   22.6032 C.ar      1 LIG        -0.1150 
      5 C5         11.3373   -1.5194   21.8690 C.ar      1 LIG        -0.1150 
      6 C4         12.6414   -1.1002   22.1469 C.ar      1 LIG         0.1800 
      7 CL         13.9213   -1.7258   21.1892 Cl        1 LIG        -0.1800 
      8 C3         12.8776   -0.1820   23.1852 C.ar      1 LIG        -0.1150 
      9 C2         11.7969    0.3152   23.9418 C.ar      1 LIG        -0.1150 
     10 C1         10.4681   -0.0922   23.6537 C.ar      1 LIG         0.0850 
     11 O           9.3543    0.3560   24.3318 O.3       1 LIG        -0.2850 
     12 C           9.5482    1.1777   25.4671 C.3       1 LIG         0.1100 
     13 N           7.1164   -0.9029   20.6138 N.am      1 LIG        -0.3850 
     14 C9          6.4066   -0.1329   19.6722 C.ar      1 LIG        -0.4271 
     15 C17         5.2768    0.6261   20.0499 C.ar      1 LIG         0.6486 
     16 C16         4.7868    0.6367   21.3726 C.ar      1 LIG        -0.4445 
     17 C15         3.6704    1.4296   21.7006 C.ar      1 LIG        -0.0460 
     18 C14         3.0471    2.2134   20.7124 C.ar      1 LIG        -0.1533 
     19 C13         3.5325    2.2079   19.3912 C.ar      1 LIG        -0.1818 
     20 C12         4.6411    1.4069   19.0579 C.ar      1 LIG        -0.2505 
     21 C11         5.1398    1.3662   17.7419 C.ar      1 LIG         0.3967 
     22 N1          6.2061    0.6251   17.3781 N.ar      1 LIG        -0.6841 
     23 C10         6.8287   -0.0983   18.3313 C.ar      1 LIG         0.4845 
     24 H7_1        8.8906   -2.4635   21.8210 H         1 LIG         0.0600 
     25 H7_2        8.2043   -1.4626   23.0832 H         1 LIG         0.0600 
     26 HC5        11.1676   -2.2349   21.0832 H         1 LIG         0.1150 
     27 HC3        13.8839    0.1442   23.3953 H         1 LIG         0.1150 
     28 HC2        12.0125    1.0219   24.7263 H         1 LIG         0.1150 
     29 HXT1        8.5822    1.4391   25.8984 H         1 LIG         0.0300 
     30 HXT2       10.1191    0.6488   26.2294 H         1 LIG         0.0300 
     31 HXT3       10.0539    2.1061   25.2026 H         1 LIG         0.0300 
     32 HN          6.6715   -1.7333   20.9815 H         1 LIG         0.3000 
     33 HC16        5.2562    0.0509   22.1488 H         1 LIG         0.2009 
     34 HC15        3.2970    1.4422   22.7133 H         1 LIG         0.1382 
     35 HC14        2.1974    2.8283   20.9680 H         1 LIG         0.1414 
     36 HC13        3.0591    2.8175   18.6364 H         1 LIG         0.1598 
     37 HC11        4.6928    1.9594   16.9602 H         1 LIG         0.0566 
     38 HC10        7.6950   -0.6642   18.0196 H         1 LIG         0.0456 
@<TRIPOS>BOND
     1    1    2 2    
     2    2    3 1    
     3    2   13 am   BACKBONE|DICT|INTERRES
     4    3    4 1    
     5    3   24 1    
     6    3   25 1    
     7    4    5 ar   
     8    4   10 ar   
     9    5    6 ar   
    10    5   26 1    
    11    6    7 1    
    12    6    8 ar   
    13    8    9 ar   
    14    8   27 1    
    15    9   10 ar   
    16    9   28 1    
    17   10   11 1    
    18   11   12 1    
    19   12   29 1    
    20   12   30 1    
    21   12   31 1    
    22   13   14 1    
    23   13   32 1    
    24   14   15 ar   
    25   14   23 ar   
    26   15   16 ar   
    27   15   20 ar   
    28   16   17 ar   
    29   16   33 1    
    30   17   18 ar   
    31   17   34 1    
    32   18   19 ar   
    33   18   35 1    
    34   19   20 ar   
    35   19   36 1    
    36   20   21 ar   
    37   21   22 ar   
    38   21   37 1    
    39   22   23 ar   
    40   23   38 1    
@<TRIPOS>SUBSTRUCTURE
     1 LIG         1 GROUP             0 A     ****    0 ROOT    
