@<TRIPOS>MOLECULE
Mpro-x11798_ligand
50   53    1
SMALL
USER_CHARGES


@<TRIPOS>ATOM
      1 O1          9.3640    1.0025   21.2495 O.2       1 LIG        -0.5000 
      2 C13         9.0079   -0.0243   21.8328 C.2       1 LIG         0.5000 
      3 C14         8.0109   -0.9716   21.1399 C.3       1 LIG         0.0025 
      4 N3          7.2628   -0.3145   20.0866 N.pl3     1 LIG         0.0636 
      5 C20         6.0971    0.4155   20.1909 C.ar      1 LIG        -0.0957 
      6 C19         5.2217    0.7846   21.2244 C.ar      1 LIG        -0.1150 
      7 C18         4.1137    1.5962   20.9125 C.ar      1 LIG        -0.1150 
      8 C17         3.9020    2.0213   19.5840 C.ar      1 LIG        -0.1150 
      9 C16         4.7861    1.6287   18.5588 C.ar      1 LIG        -0.1150 
     10 C15         5.8956    0.8131   18.8538 C.ar      1 LIG         0.2502 
     11 N5          6.8996    0.3095   18.0537 N.2       1 LIG        -0.4222 
     12 N4          7.7175   -0.3607   18.8048 N.2       1 LIG         0.0816 
     13 N2          9.4654   -0.3535   23.0643 N.am      1 LIG        -0.0317 
     14 C8         10.5449    0.3973   23.7241 C.3       1 LIG         0.0650 
     15 C9         11.8011   -0.4161   23.8191 C.2       1 LIG        -0.0677 
     16 C12        12.4917   -0.8811   22.7289 C.2       1 LIG        -0.3255 
     17 S          13.7869   -1.9423   23.1924 S.3       1 LIG         0.0328 
     18 C11        13.4544   -1.6820   24.8788 C.2       1 LIG        -0.3255 
     19 C10        12.3660   -0.8708   25.0495 C.2       1 LIG        -0.0738 
     20 C5          8.9439   -1.4614   23.7772 C.ar      1 LIG        -0.0383 
     21 C4          9.6278   -2.6935   23.7777 C.ar      1 LIG        -0.1150 
     22 C3          9.1631   -3.7472   24.5797 C.ar      1 LIG        -0.1150 
     23 C6          7.7613   -1.3122   24.5305 C.ar      1 LIG        -0.1150 
     24 C7          7.2762   -2.3816   25.3037 C.ar      1 LIG        -0.1150 
     25 C2          7.9910   -3.6021   25.3507 C.ar      1 LIG         0.1066 
     26 N1          7.6520   -4.6834   26.2025 N.am      1 LIG        -0.4727 
     27 C1          6.6009   -4.8353   27.0206 C.2       1 LIG         0.7661 
     28 O           5.5330   -4.2313   26.9274 O.2       1 LIG        -0.6163 
     29 N           6.8457   -5.7736   27.9454 N.am      1 LIG        -0.5181 
     30 C           5.9077   -6.1674   28.9843 C.3       1 LIG        -0.0280 
     31 H141        7.2804   -1.3857   21.8338 H         1 LIG         0.0600 
     32 H142        8.5728   -1.8085   20.7296 H         1 LIG         0.0600 
     33 HC19        5.3974    0.4522   22.2359 H         1 LIG         0.1150 
     34 HC18        3.4305    1.9001   21.6913 H         1 LIG         0.1150 
     35 HC17        3.0588    2.6520   19.3449 H         1 LIG         0.1150 
     36 HC16        4.6302    1.9633   17.5462 H         1 LIG         0.1150 
     37 H8_1       10.2028    0.6795   24.7210 H         1 LIG         0.0600 
     38 H8_2       10.7608    1.3393   23.2248 H         1 LIG         0.0600 
     39 HC12       12.2836   -0.7097   21.6820 H         1 LIG         0.2618 
     40 HC11       14.0607   -2.1622   25.6328 H         1 LIG         0.2618 
     41 HC10       11.9405   -0.6135   26.0057 H         1 LIG         0.1211 
     42 HC4        10.5319   -2.8247   23.2009 H         1 LIG         0.1150 
     43 HC3         9.7332   -4.6630   24.6137 H         1 LIG         0.1150 
     44 HC6         7.2347   -0.3700   24.5341 H         1 LIG         0.1150 
     45 HC7         6.3870   -2.2181   25.8921 H         1 LIG         0.1150 
     46 HN1         8.3830   -5.3780   26.3031 H         1 LIG         0.2912 
     47 HN          7.7416   -6.2400   27.9331 H         1 LIG         0.2912 
     48 HXT1        6.3799   -6.8783   29.6621 H         1 LIG         0.0600 
     49 HXT2        5.5868   -5.3039   29.5683 H         1 LIG         0.0600 
     50 HXT3        5.0283   -6.6427   28.5478 H         1 LIG         0.0600 
@<TRIPOS>BOND
     1    1    2 2    
     2    2    3 1    
     3    2   13 am   BACKBONE|DICT|INTERRES
     4    3    4 1    
     5    3   31 1    
     6    3   32 1    
     7    4    5 ar   
     8    4   12 ar   
     9    5    6 ar   
    10    5   10 ar   
    11    6    7 ar   
    12    6   33 1    
    13    7    8 ar   
    14    7   34 1    
    15    8    9 ar   
    16    8   35 1    
    17    9   10 ar   
    18    9   36 1    
    19   10   11 ar   
    20   11   12 ar   
    21   13   14 1    
    22   13   20 1    
    23   14   15 1    
    24   14   37 1    
    25   14   38 1    
    26   15   16 2    
    27   15   19 1    
    28   16   17 1    
    29   16   39 1    
    30   17   18 1    
    31   18   19 2    
    32   18   40 1    
    33   19   41 1    
    34   20   21 ar   
    35   20   23 ar   
    36   21   22 ar   
    37   21   42 1    
    38   22   25 ar   
    39   22   43 1    
    40   23   24 ar   
    41   23   44 1    
    42   24   25 ar   
    43   24   45 1    
    44   25   26 1    
    45   26   27 am   BACKBONE|DICT|INTERRES
    46   26   46 1    
    47   27   28 2    
    48   27   29 am   BACKBONE|DICT|INTERRES
    49   29   30 1    
    50   29   47 1    
    51   30   48 1    
    52   30   49 1    
    53   30   50 1    
@<TRIPOS>SUBSTRUCTURE
     1 LIG         1 GROUP             0 A     ****    0 ROOT    
