@<TRIPOS>MOLECULE
Mpro-x1336_ligand
40   41    1
SMALL
USER_CHARGES


@<TRIPOS>ATOM
      1 N           7.3487   -2.3681   23.7223 N.pl3     1 LIG        -0.5376 
      2 C           6.0487   -5.3831   29.0017 C.3       1 LIG        -0.0650 
      3 O           8.4860   -0.8537   25.5002 O.2       1 LIG        -0.4680 
      4 C1          7.0533   -4.8964   27.9770 C.ar      1 LIG        -0.1150 
      5 C10         6.8491   -4.1429   22.0496 C.3       1 LIG        -0.0133 
      6 C11         6.3989   -3.4377   23.3436 C.3       1 LIG         0.0588 
      7 C12         6.3656   -3.0816   19.8691 C.2       1 LIG         0.5000 
      8 C13         6.4136   -1.8095   19.0216 C.3       1 LIG        -0.1800 
      9 C2          8.2234   -5.6373   27.7400 C.ar      1 LIG        -0.1150 
     10 C3          9.1575   -5.2165   26.7755 C.ar      1 LIG        -0.1150 
     11 C4          8.9302   -4.0433   26.0256 C.ar      1 LIG        -0.1150 
     12 C5          9.9325   -3.6634   24.9454 C.3       1 LIG        -0.0650 
     13 C6          7.7601   -3.2824   26.2839 C.ar      1 LIG         0.1567 
     14 C7          6.8285   -3.7104   27.2531 C.ar      1 LIG        -0.1150 
     15 C8          7.7262   -1.4394   22.6440 C.3       1 LIG         0.0588 
     16 C9          8.1443   -2.2153   21.3893 C.3       1 LIG        -0.0133 
     17 N1          7.0751   -3.1365   21.0130 N.am      1 LIG        -0.1400 
     18 O1          5.9962   -1.3617   25.6760 O.2       1 LIG        -0.4680 
     19 O2          5.6588   -4.0124   19.4930 O.2       1 LIG        -0.5000 
     20 S           7.3643   -1.7961   25.3538 S.o2      1 LIG         0.8327 
     21 HXT1        5.2529   -4.6541   29.1577 H         1 LIG         0.0600 
     22 HXT2        5.5963   -6.3172   28.6672 H         1 LIG         0.0600 
     23 HXT3        6.5366   -5.5632   29.9601 H         1 LIG         0.0600 
     24 H101        6.1091   -4.8915   21.7619 H         1 LIG         0.0600 
     25 H102        7.7775   -4.6838   22.2136 H         1 LIG         0.0600 
     26 H111        5.4075   -3.0031   23.2162 H         1 LIG         0.0733 
     27 H112        6.3220   -4.1702   24.1473 H         1 LIG         0.0733 
     28 H131        5.7390   -1.8895   18.1729 H         1 LIG         0.0600 
     29 H132        6.1125   -0.9437   19.6124 H         1 LIG         0.0600 
     30 H133        7.4079   -1.6232   18.6193 H         1 LIG         0.0600 
     31 HC2         8.3977   -6.5411   28.2988 H         1 LIG         0.1150 
     32 HC3        10.0403   -5.8142   26.5980 H         1 LIG         0.1150 
     33 H5_1       10.2054   -2.6122   24.9888 H         1 LIG         0.0600 
     34 H5_2       10.8449   -4.2513   25.0374 H         1 LIG         0.0600 
     35 H5_3        9.5260   -3.8515   23.9544 H         1 LIG         0.0600 
     36 HC7         5.9304   -3.1400   27.4369 H         1 LIG         0.1150 
     37 H8_1        8.5452   -0.7991   22.9711 H         1 LIG         0.0733 
     38 H8_2        6.8824   -0.7827   22.4273 H         1 LIG         0.0733 
     39 H9_1        9.0438   -2.7979   21.5908 H         1 LIG         0.0600 
     40 H9_2        8.4219   -1.5149   20.6026 H         1 LIG         0.0600 
@<TRIPOS>BOND
     1    1    6 1    
     2    1   15 1    
     3    1   20 1    
     4    2    4 1    
     5    2   21 1    
     6    2   22 1    
     7    2   23 1    
     8    3   20 2    
     9    4    9 ar   
    10    4   14 ar   
    11    5    6 1    
    12    5   17 1    
    13    5   24 1    
    14    5   25 1    
    15    6   26 1    
    16    6   27 1    
    17    7    8 1    
    18    7   17 am   BACKBONE|DICT|INTERRES
    19    7   19 2    
    20    8   28 1    
    21    8   29 1    
    22    8   30 1    
    23    9   10 ar   
    24    9   31 1    
    25   10   11 ar   
    26   10   32 1    
    27   11   12 1    
    28   11   13 ar   
    29   12   33 1    
    30   12   34 1    
    31   12   35 1    
    32   13   14 ar   
    33   13   20 1    
    34   14   36 1    
    35   15   16 1    
    36   15   37 1    
    37   15   38 1    
    38   16   17 1    
    39   16   39 1    
    40   16   40 1    
    41   18   20 2    
@<TRIPOS>SUBSTRUCTURE
     1 LIG         1 GROUP             0 A     ****    0 ROOT    
