@<TRIPOS>MOLECULE
Mpro-x10417_ligand
31   32    1
SMALL
USER_CHARGES


@<TRIPOS>ATOM
      1 C9         10.9712    0.1192   23.8810 C.ar      1 LIG        -0.1150 
      2 F          13.8112   -1.6363   21.3791 F         1 LIG        -0.2200 
      3 N           6.4889    0.6870   17.6771 N.ar      1 LIG        -0.6780 
      4 C12        12.8905   -1.0706   22.1937 C.ar      1 LIG         0.2200 
      5 C1          5.4413    0.8442   20.2937 C.ar      1 LIG         0.1770 
      6 C11        13.2826   -0.1295   23.1625 C.ar      1 LIG        -0.1150 
      7 C           4.8750    0.9539   21.6959 C.3       1 LIG        -0.0650 
      8 C8         10.5674   -0.7925   22.8850 C.ar      1 LIG        -0.1150 
      9 C2          4.7814    1.4593   19.2120 C.ar      1 LIG        -0.4470 
     10 C6          8.5359   -0.1578   21.5448 C.2       1 LIG         0.5000 
     11 N1          7.3381   -0.5101   21.0677 N.am      1 LIG        -0.3850 
     12 O           9.1500    0.8396   21.1538 O.2       1 LIG        -0.5000 
     13 C5          6.6471    0.1577   20.0363 C.ar      1 LIG        -0.2070 
     14 C7          9.0961   -1.0646   22.6491 C.3       1 LIG        -0.0050 
     15 C4          7.1269    0.1054   18.7127 C.ar      1 LIG         0.4730 
     16 C10        12.3302    0.4436   24.0249 C.ar      1 LIG        -0.1150 
     17 C13        11.5343   -1.4160   22.0721 C.ar      1 LIG        -0.1150 
     18 C3          5.3450    1.3509   17.9288 C.ar      1 LIG         0.4730 
     19 HC9        10.2405    0.5879   24.5212 H         1 LIG         0.1150 
     20 HC11       14.3145    0.1525   23.2431 H         1 LIG         0.1150 
     21 HXT1        4.7768   -0.0327   22.1493 H         1 LIG         0.0600 
     22 HXT2        5.5355    1.5586   22.3187 H         1 LIG         0.0600 
     23 HXT3        3.8912    1.4231   21.6874 H         1 LIG         0.0600 
     24 HC2         3.8693    2.0145   19.3588 H         1 LIG         0.1550 
     25 HN1         6.8660   -1.2967   21.4988 H         1 LIG         0.3000 
     26 H7_1        8.5317   -0.9049   23.5688 H         1 LIG         0.0600 
     27 H7_2        8.9637   -2.1110   22.3702 H         1 LIG         0.0600 
     28 HC4         8.0437   -0.4155   18.4760 H         1 LIG         0.0120 
     29 HC10       12.6354    1.1534   24.7768 H         1 LIG         0.1150 
     30 HC13       11.2293   -2.1453   21.3420 H         1 LIG         0.1150 
     31 HC3         4.8845    1.8355   17.0837 H         1 LIG         0.0120 
@<TRIPOS>BOND
     1    1    8 ar   
     2    1   16 ar   
     3    1   19 1    
     4    2    4 1    
     5    3   15 ar   
     6    3   18 ar   
     7    4    6 ar   
     8    4   17 ar   
     9    5    7 1    
    10    5    9 ar   
    11    5   13 ar   
    12    6   16 ar   
    13    6   20 1    
    14    7   21 1    
    15    7   22 1    
    16    7   23 1    
    17    8   14 1    
    18    8   17 ar   
    19    9   18 ar   
    20    9   24 1    
    21   10   11 am   BACKBONE|DICT|INTERRES
    22   10   12 2    
    23   10   14 1    
    24   11   13 1    
    25   11   25 1    
    26   13   15 ar   
    27   14   26 1    
    28   14   27 1    
    29   15   28 1    
    30   16   29 1    
    31   17   30 1    
    32   18   31 1    
@<TRIPOS>SUBSTRUCTURE
     1 LIG         1 GROUP             0 A     ****    0 ROOT    
