@<TRIPOS>MOLECULE
Mpro-x11271_ligand
35   36    1
SMALL
USER_CHARGES


@<TRIPOS>ATOM
      1 O1          8.4229    0.4334   21.0242 O.2       1 LIG        -0.5000 
      2 C7          7.7857   -0.5919   21.2797 C.2       1 LIG         0.5000 
      3 C6          8.3283   -1.6401   22.2614 C.3       1 LIG        -0.0050 
      4 C5          9.6420   -1.1796   22.8652 C.ar      1 LIG        -0.1150 
      5 C4         10.8637   -1.5751   22.2901 C.ar      1 LIG        -0.1150 
      6 C3         12.0697   -1.0341   22.7662 C.ar      1 LIG         0.1800 
      7 CL         13.5567   -1.5125   22.0414 Cl        1 LIG        -0.1800 
      8 C2         12.0558   -0.1018   23.8219 C.ar      1 LIG        -0.1150 
      9 C14         9.6361   -0.2981   23.9643 C.ar      1 LIG        -0.1150 
     10 C1         10.8466    0.2465   24.4577 C.ar      1 LIG         0.0850 
     11 O          10.9144    1.1122   25.5265 O.3       1 LIG        -0.2850 
     12 C           9.7180    1.3474   26.2567 C.3       1 LIG         0.1100 
     13 N           6.5820   -0.8411   20.7455 N.am      1 LIG        -0.3850 
     14 C8          5.9928   -0.0136   19.7646 C.ar      1 LIG        -0.2070 
     15 C12         4.9560    0.8942   20.0802 C.ar      1 LIG         0.1770 
     16 C13         4.4136    1.0268   21.4896 C.3       1 LIG        -0.0650 
     17 C11         4.4444    1.7044   19.0471 C.ar      1 LIG        -0.4470 
     18 C10         4.9704    1.5581   17.7501 C.ar      1 LIG         0.4730 
     19 N1          5.9532    0.6879   17.4413 N.ar      1 LIG        -0.6780 
     20 C9          6.4514   -0.0774   18.4333 C.ar      1 LIG         0.4730 
     21 H6_1        8.4708   -2.5889   21.7432 H         1 LIG         0.0600 
     22 H6_2        7.5996   -1.8127   23.0544 H         1 LIG         0.0600 
     23 HC4        10.8763   -2.2671   21.4632 H         1 LIG         0.1150 
     24 HC2        12.9835    0.3295   24.1678 H         1 LIG         0.1150 
     25 HC14        8.6828   -0.0263   24.3896 H         1 LIG         0.1150 
     26 HXT1        9.9278    1.9925   27.1055 H         1 LIG         0.0300 
     27 HXT2        8.9701    1.8533   25.6455 H         1 LIG         0.0300 
     28 HXT3        9.3008    0.4186   26.6493 H         1 LIG         0.0300 
     29 HN          6.0704   -1.6585   21.0439 H         1 LIG         0.3000 
     30 H131        3.4596    1.5548   21.4947 H         1 LIG         0.0600 
     31 H132        4.2565    0.0467   21.9378 H         1 LIG         0.0600 
     32 H133        5.1164    1.5827   22.1105 H         1 LIG         0.0600 
     33 HC11        3.6641    2.4263   19.2346 H         1 LIG         0.1550 
     34 HC10        4.6022    2.1661   16.9389 H         1 LIG         0.0120 
     35 HC9         7.2455   -0.7557   18.1575 H         1 LIG         0.0120 
@<TRIPOS>BOND
     1    1    2 2    
     2    2    3 1    
     3    2   13 am   BACKBONE|DICT|INTERRES
     4    3    4 1    
     5    3   21 1    
     6    3   22 1    
     7    4    5 ar   
     8    4    9 ar   
     9    5    6 ar   
    10    5   23 1    
    11    6    7 1    
    12    6    8 ar   
    13    8   10 ar   
    14    8   24 1    
    15    9   10 ar   
    16    9   25 1    
    17   10   11 1    
    18   11   12 1    
    19   12   26 1    
    20   12   27 1    
    21   12   28 1    
    22   13   14 1    
    23   13   29 1    
    24   14   15 ar   
    25   14   20 ar   
    26   15   16 1    
    27   15   17 ar   
    28   16   30 1    
    29   16   31 1    
    30   16   32 1    
    31   17   18 ar   
    32   17   33 1    
    33   18   19 ar   
    34   18   34 1    
    35   19   20 ar   
    36   20   35 1    
@<TRIPOS>SUBSTRUCTURE
     1 LIG         1 GROUP             0 A     ****    0 ROOT    
