@<TRIPOS>MOLECULE
Mpro-x11541_ligand
43   45    1
SMALL
USER_CHARGES


@<TRIPOS>ATOM
      1 O1          9.5296    0.9549   21.0831 O.2       1 LIG        -0.5000 
      2 C5          9.1761   -0.2023   21.3089 C.2       1 LIG         0.5000 
      3 N2          8.0273   -0.7276   20.8565 N.am      1 LIG        -0.3850 
      4 C6          7.1294   -0.0818   19.9811 C.ar      1 LIG        -0.4271 
      5 C14         5.9009    0.4655   20.4206 C.ar      1 LIG         0.6486 
      6 C13         5.4862    0.4193   21.7687 C.ar      1 LIG        -0.4445 
      7 C12         4.2728    1.0187   22.1545 C.ar      1 LIG        -0.0460 
      8 C11         3.4694    1.6744   21.2008 C.ar      1 LIG        -0.1533 
      9 C10         3.8666    1.7141   19.8523 C.ar      1 LIG        -0.1818 
     10 C9          5.0700    1.0977   19.4630 C.ar      1 LIG        -0.2505 
     11 C8          5.4787    1.1026   18.1185 C.ar      1 LIG         0.3967 
     12 N3          6.6278    0.5446   17.6954 N.ar      1 LIG        -0.6841 
     13 C7          7.4383   -0.0196   18.6102 C.ar      1 LIG         0.4845 
     14 C4         10.0435   -1.1188   22.1783 C.3       1 LIG         0.0025 
     15 N1          9.2634   -1.9162   23.1442 N.3       1 LIG        -0.5425 
     16 C3          8.6407   -1.0759   24.1696 C.3       1 LIG         0.0900 
     17 C2          7.7087   -1.9360   25.0295 C.3       1 LIG        -0.0500 
     18 C15        10.0911   -2.9296   23.7917 C.3       1 LIG         0.0900 
     19 C16         9.2211   -3.8311   24.6876 C.3       1 LIG        -0.0500 
     20 N           8.4495   -3.0383   25.6528 N.am      1 LIG        -0.1400 
     21 C1          8.2900   -3.3474   26.9580 C.2       1 LIG         0.5000 
     22 O           7.7024   -2.6072   27.7444 O.2       1 LIG        -0.5000 
     23 C           8.7869   -4.6945   27.4736 C.3       1 LIG        -0.1800 
     24 HN2         7.7614   -1.6449   21.1932 H         1 LIG         0.3000 
     25 HC13        6.0923   -0.0667   22.5174 H         1 LIG         0.2009 
     26 HC12        3.9614    0.9811   23.1874 H         1 LIG         0.1382 
     27 HC11        2.5483    2.1473   21.5060 H         1 LIG         0.1414 
     28 HC10        3.2489    2.2181   19.1217 H         1 LIG         0.1598 
     29 HC8         4.8884    1.5872   17.3600 H         1 LIG         0.0566 
     30 HC7         8.3617   -0.4392   18.2366 H         1 LIG         0.0456 
     31 H4_1       10.7942   -0.5262   22.7041 H         1 LIG         0.0600 
     32 H4_2       10.5838   -1.7863   21.5066 H         1 LIG         0.0600 
     33 H3_1        8.0513   -0.2819   23.7181 H         1 LIG         0.0600 
     34 H3_2        9.3998   -0.5910   24.7862 H         1 LIG         0.0600 
     35 H2_1        6.9083   -2.3538   24.4176 H         1 LIG         0.0600 
     36 H2_2        7.2193   -1.2873   25.7570 H         1 LIG         0.0600 
     37 H151       10.8704   -2.4511   24.3785 H         1 LIG         0.0600 
     38 H152       10.5885   -3.5415   23.0411 H         1 LIG         0.0600 
     39 H161        9.8734   -4.5640   25.1609 H         1 LIG         0.0600 
     40 H162        8.5157   -4.3895   24.0777 H         1 LIG         0.0600 
     41 HXT1        8.4692   -4.8479   28.5031 H         1 LIG         0.0600 
     42 HXT2        8.3377   -5.4908   26.8849 H         1 LIG         0.0600 
     43 HXT3        9.8736   -4.7715   27.4342 H         1 LIG         0.0600 
@<TRIPOS>BOND
     1    1    2 2    
     2    2    3 am   BACKBONE|DICT|INTERRES
     3    2   14 1    
     4    3    4 1    
     5    3   24 1    
     6    4    5 ar   
     7    4   13 ar   
     8    5    6 ar   
     9    5   10 ar   
    10    6    7 ar   
    11    6   25 1    
    12    7    8 ar   
    13    7   26 1    
    14    8    9 ar   
    15    8   27 1    
    16    9   10 ar   
    17    9   28 1    
    18   10   11 ar   
    19   11   12 ar   
    20   11   29 1    
    21   12   13 ar   
    22   13   30 1    
    23   14   15 1    
    24   14   31 1    
    25   14   32 1    
    26   15   16 1    
    27   15   18 1    
    28   16   17 1    
    29   16   33 1    
    30   16   34 1    
    31   17   20 1    
    32   17   35 1    
    33   17   36 1    
    34   18   19 1    
    35   18   37 1    
    36   18   38 1    
    37   19   20 1    
    38   19   39 1    
    39   19   40 1    
    40   20   21 am   BACKBONE|DICT|INTERRES
    41   21   22 2    
    42   21   23 1    
    43   23   41 1    
    44   23   42 1    
    45   23   43 1    
@<TRIPOS>SUBSTRUCTURE
     1 LIG         1 GROUP             0 A     ****    0 ROOT    
