@<TRIPOS>MOLECULE
Mpro-x12177_ligand
48   51    1
SMALL
USER_CHARGES


@<TRIPOS>ATOM
      1 O1          9.0517    1.4523   21.1223 O.2       1 LIG        -0.5000 
      2 C14         8.8229    0.4166   21.7515 C.2       1 LIG         0.5000 
      3 C15         8.0808   -0.7325   21.0382 C.3       1 LIG         0.0025 
      4 N1          7.1713   -0.2035   20.0414 N.pl3     1 LIG         0.0636 
      5 C21         6.0027    0.5009   20.2442 C.ar      1 LIG        -0.0957 
      6 C20         5.2372    0.8906   21.3562 C.ar      1 LIG        -0.1150 
      7 C19         4.1064    1.7018   21.1437 C.ar      1 LIG        -0.1150 
      8 C18         3.7766    2.1224   19.8378 C.ar      1 LIG        -0.1150 
      9 C17         4.5602    1.7202   18.7369 C.ar      1 LIG        -0.1150 
     10 C16         5.6749    0.8808   18.9270 C.ar      1 LIG         0.2502 
     11 N3          6.5874    0.3486   18.0365 N.2       1 LIG        -0.4222 
     12 N2          7.4797   -0.3006   18.7194 N.2       1 LIG         0.0816 
     13 N           9.1915    0.2735   23.0470 N.am      1 LIG        -0.0317 
     14 C4          9.0147   -0.9414   23.7525 C.ar      1 LIG        -0.0383 
     15 C3          8.0789   -1.0074   24.8021 C.ar      1 LIG        -0.1150 
     16 C2          7.9374   -2.1932   25.5438 C.ar      1 LIG        -0.1150 
     17 C5          9.7967   -2.0712   23.4345 C.ar      1 LIG        -0.1150 
     18 C6          9.6591   -3.2512   24.1859 C.ar      1 LIG        -0.1150 
     19 C1          8.7287   -3.3202   25.2521 C.ar      1 LIG         0.0850 
     20 O           8.5464   -4.4272   26.0456 O.3       1 LIG        -0.2850 
     21 C           9.3025   -5.5846   25.7423 C.3       1 LIG         0.1100 
     22 C7          9.7882    1.4014   23.7799 C.3       1 LIG         0.0650 
     23 C8         11.2159    1.6807   23.3439 C.ar      1 LIG        -0.1150 
     24 C13        11.5786    2.9396   22.8219 C.ar      1 LIG        -0.1150 
     25 C12        12.8935    3.1582   22.3657 C.ar      1 LIG         0.1800 
     26 CL         13.3614    4.6962   21.7480 Cl        1 LIG        -0.1800 
     27 C11        13.8375    2.1181   22.4183 C.ar      1 LIG        -0.1150 
     28 C10        13.4839    0.8678   22.9526 C.ar      1 LIG        -0.1150 
     29 C9         12.1783    0.6567   23.4276 C.ar      1 LIG        -0.1150 
     30 H151        7.4877   -1.3334   21.7274 H         1 LIG         0.0600 
     31 H152        8.8106   -1.3914   20.5678 H         1 LIG         0.0600 
     32 HC20        5.5157    0.5845   22.3535 H         1 LIG         0.1150 
     33 HC19        3.5018    2.0165   21.9814 H         1 LIG         0.1150 
     34 HC18        2.9213    2.7602   19.6744 H         1 LIG         0.1150 
     35 HC17        4.3200    2.0645   17.7461 H         1 LIG         0.1150 
     36 HC3         7.4803   -0.1439   25.0518 H         1 LIG         0.1150 
     37 HC2         7.2286   -2.2319   26.3579 H         1 LIG         0.1150 
     38 HC5        10.5229   -2.0292   22.6355 H         1 LIG         0.1150 
     39 HC6        10.3015   -4.0817   23.9469 H         1 LIG         0.1150 
     40 HXT1        8.9218   -6.3898   26.3618 H         1 LIG         0.0300 
     41 HXT2        9.1866   -5.8969   24.7036 H         1 LIG         0.0300 
     42 HXT3       10.3604   -5.4439   25.9694 H         1 LIG         0.0300 
     43 H7_1        9.8044    1.1951   24.8515 H         1 LIG         0.0600 
     44 H7_2        9.1757    2.2961   23.6652 H         1 LIG         0.0600 
     45 HC13       10.8492    3.7332   22.7592 H         1 LIG         0.1150 
     46 HC11       14.8424    2.2833   22.0612 H         1 LIG         0.1150 
     47 HC10       14.2171    0.0775   23.0011 H         1 LIG         0.1150 
     48 HC9        11.9026   -0.2947   23.8481 H         1 LIG         0.1150 
@<TRIPOS>BOND
     1    1    2 2    
     2    2    3 1    
     3    2   13 am   BACKBONE|DICT|INTERRES
     4    3    4 1    
     5    3   30 1    
     6    3   31 1    
     7    4    5 ar   
     8    4   12 ar   
     9    5    6 ar   
    10    5   10 ar   
    11    6    7 ar   
    12    6   32 1    
    13    7    8 ar   
    14    7   33 1    
    15    8    9 ar   
    16    8   34 1    
    17    9   10 ar   
    18    9   35 1    
    19   10   11 ar   
    20   11   12 ar   
    21   13   14 1    
    22   13   22 1    
    23   14   15 ar   
    24   14   17 ar   
    25   15   16 ar   
    26   15   36 1    
    27   16   19 ar   
    28   16   37 1    
    29   17   18 ar   
    30   17   38 1    
    31   18   19 ar   
    32   18   39 1    
    33   19   20 1    
    34   20   21 1    
    35   21   40 1    
    36   21   41 1    
    37   21   42 1    
    38   22   23 1    
    39   22   43 1    
    40   22   44 1    
    41   23   24 ar   
    42   23   29 ar   
    43   24   25 ar   
    44   24   45 1    
    45   25   26 1    
    46   25   27 ar   
    47   27   28 ar   
    48   27   46 1    
    49   28   29 ar   
    50   28   47 1    
    51   29   48 1    
@<TRIPOS>SUBSTRUCTURE
     1 LIG         1 GROUP             0 A     ****    0 ROOT    
