@<TRIPOS>MOLECULE
Mpro-x11810_ligand
33   35    1
SMALL
USER_CHARGES


@<TRIPOS>ATOM
      1 O           8.7437    0.7496   20.9883 O.2       1 LIG        -0.5000 
      2 C5          8.1983   -0.2845   21.3831 C.2       1 LIG         0.5000 
      3 C4          8.7507   -1.0629   22.5832 C.3       1 LIG        -0.0050 
      4 C3         10.2260   -0.7734   22.7657 C.ar      1 LIG         0.3700 
      5 N          10.5579    0.2627   23.5698 N.ar      1 LIG        -0.6780 
      6 C2         11.8594    0.6164   23.6347 C.ar      1 LIG         0.4730 
      7 C1         12.8760   -0.0433   22.9151 C.ar      1 LIG        -0.4470 
      8 C15        11.1712   -1.5198   22.0416 C.ar      1 LIG        -0.4470 
      9 C          12.5172   -1.1348   22.1029 C.ar      1 LIG         0.4720 
     10 CL         13.6872   -1.9816   21.1705 Cl        1 LIG        -0.1800 
     11 N1          7.1003   -0.7873   20.8049 N.am      1 LIG        -0.3850 
     12 C6          6.3876   -0.1033   19.7967 C.ar      1 LIG        -0.4271 
     13 C14         5.2599    0.6912   20.0995 C.ar      1 LIG         0.6486 
     14 C13         4.7483    0.8066   21.4106 C.ar      1 LIG        -0.4445 
     15 C12         3.6339    1.6264   21.6602 C.ar      1 LIG        -0.0460 
     16 C11         3.0326    2.3461   20.6105 C.ar      1 LIG        -0.1533 
     17 C10         3.5400    2.2435   19.3028 C.ar      1 LIG        -0.1818 
     18 C9          4.6412    1.4048   19.0459 C.ar      1 LIG        -0.2505 
     19 C8          5.1533    1.2582   17.7439 C.ar      1 LIG         0.3967 
     20 N2          6.2121    0.4788   17.4507 N.ar      1 LIG        -0.6841 
     21 C7          6.8185   -0.1794   18.4590 C.ar      1 LIG         0.4845 
     22 H4_1        8.6079   -2.1341   22.4312 H         1 LIG         0.0600 
     23 H4_2        8.1975   -0.7894   23.4815 H         1 LIG         0.0600 
     24 HC2        12.0949    1.4568   24.2680 H         1 LIG         0.0120 
     25 HC1        13.9013    0.2824   22.9794 H         1 LIG         0.1550 
     26 HC15       10.8608   -2.3415   21.4175 H         1 LIG         0.1550 
     27 HN1         6.6861   -1.6280   21.1893 H         1 LIG         0.3000 
     28 HC13        5.1992    0.2705   22.2324 H         1 LIG         0.2009 
     29 HC12        3.2417    1.7025   22.6619 H         1 LIG         0.1382 
     30 HC11        2.1809    2.9796   20.8089 H         1 LIG         0.1414 
     31 HC10        3.0802    2.8032   18.5013 H         1 LIG         0.1598 
     32 HC8         4.7232    1.7981   16.9152 H         1 LIG         0.0566 
     33 HC7         7.6830   -0.7699   18.1920 H         1 LIG         0.0456 
@<TRIPOS>BOND
     1    1    2 2    
     2    2    3 1    
     3    2   11 am   BACKBONE|DICT|INTERRES
     4    3    4 1    
     5    3   22 1    
     6    3   23 1    
     7    4    5 ar   
     8    4    8 ar   
     9    5    6 ar   
    10    6    7 ar   
    11    6   24 1    
    12    7    9 ar   
    13    7   25 1    
    14    8    9 ar   
    15    8   26 1    
    16    9   10 1    
    17   11   12 1    
    18   11   27 1    
    19   12   13 ar   
    20   12   21 ar   
    21   13   14 ar   
    22   13   18 ar   
    23   14   15 ar   
    24   14   28 1    
    25   15   16 ar   
    26   15   29 1    
    27   16   17 ar   
    28   16   30 1    
    29   17   18 ar   
    30   17   31 1    
    31   18   19 ar   
    32   19   20 ar   
    33   19   32 1    
    34   20   21 ar   
    35   21   33 1    
@<TRIPOS>SUBSTRUCTURE
     1 LIG         1 GROUP             0 A     ****    0 ROOT    
