@<TRIPOS>MOLECULE
Mpro-x11313_ligand
46   48    1
SMALL
USER_CHARGES


@<TRIPOS>ATOM
      1 O3          6.2332    1.1291   16.7704 O.2       1 LIG        -0.5000 
      2 C12         5.7069    0.8619   17.8423 C.ar      1 LIG         0.5567 
      3 C11         6.1498   -0.2090   18.7232 C.ar      1 LIG        -0.1717 
      4 N1          4.6621    1.5797   18.2752 N.pl3     1 LIG        -0.3850 
      5 C13         4.0510    1.4546   19.5400 C.ar      1 LIG         0.0850 
      6 C19         4.5295    0.5007   20.4741 C.ar      1 LIG         0.0000 
      7 C17         3.9591    0.5180   21.7859 C.ar      1 LIG        -0.1150 
      8 C18         4.4794   -0.3068   22.9508 C.3       1 LIG        -0.0650 
      9 C16         2.8724    1.3767   22.0643 C.ar      1 LIG        -0.1150 
     10 C15         2.3780    2.2638   21.0970 C.ar      1 LIG        -0.1150 
     11 C14         2.9864    2.3198   19.8350 C.ar      1 LIG        -0.1150 
     12 C10         5.6174   -0.3841   19.9535 C.ar      1 LIG        -0.0567 
     13 C9          5.9463   -1.6173   20.6422 C.2       1 LIG         0.5567 
     14 O2          5.2346   -2.6210   20.6569 O.2       1 LIG        -0.5000 
     15 N           7.1132   -1.5393   21.2943 N.am      1 LIG        -0.5000 
     16 C8          7.6333   -2.5756   22.1772 C.3       1 LIG         0.0800 
     17 C7          9.1516   -2.4673   22.2831 C.3       1 LIG         0.1400 
     18 O1          9.4818   -1.2184   22.8701 O.3       1 LIG        -0.2850 
     19 C6         10.7976   -0.8132   22.8198 C.ar      1 LIG         0.0850 
     20 C1         11.0675    0.5230   23.1888 C.ar      1 LIG         0.0850 
     21 O           9.9929    1.2990   23.5673 O.3       1 LIG        -0.2850 
     22 C          10.2153    2.6810   23.7931 C.3       1 LIG         0.1100 
     23 C5         11.8570   -1.6570   22.4084 C.ar      1 LIG        -0.1150 
     24 C4         13.1733   -1.1718   22.3418 C.ar      1 LIG        -0.1150 
     25 C3         13.4408    0.1536   22.7164 C.ar      1 LIG        -0.1150 
     26 C2         12.4008    0.9985   23.1377 C.ar      1 LIG        -0.1150 
     27 HC11        6.8767   -0.9121   18.3408 H         1 LIG         0.1150 
     28 HN1         4.3323    2.3322   17.6826 H         1 LIG         0.3000 
     29 H181        4.0043   -0.0187   23.8883 H         1 LIG         0.0600 
     30 H182        4.2862   -1.3646   22.8058 H         1 LIG         0.0600 
     31 H183        5.5508   -0.1570   23.0749 H         1 LIG         0.0600 
     32 HC16        2.4172    1.3711   23.0434 H         1 LIG         0.1150 
     33 HC15        1.5538    2.9217   21.3313 H         1 LIG         0.1150 
     34 HC14        2.6352    3.0265   19.0972 H         1 LIG         0.1150 
     35 HN          7.6431   -0.6791   21.2255 H         1 LIG         0.3000 
     36 H8_1        7.3746   -3.5661   21.7995 H         1 LIG         0.0600 
     37 H8_2        7.1751   -2.4754   23.1618 H         1 LIG         0.0600 
     38 H7_1        9.5826   -2.5587   21.2854 H         1 LIG         0.0300 
     39 H7_2        9.5404   -3.2786   22.9002 H         1 LIG         0.0300 
     40 HXT1        9.2713    3.1662   24.0384 H         1 LIG         0.0300 
     41 HXT2       10.8952    2.8395   24.6279 H         1 LIG         0.0300 
     42 HXT3       10.6158    3.1683   22.9022 H         1 LIG         0.0300 
     43 HC5        11.6838   -2.6832   22.1313 H         1 LIG         0.1150 
     44 HC4        13.9727   -1.8173   22.0114 H         1 LIG         0.1150 
     45 HC3        14.4447    0.5376   22.6560 H         1 LIG         0.1150 
     46 HC2        12.6521    2.0148   23.3985 H         1 LIG         0.1150 
@<TRIPOS>BOND
     1    1    2 2    
     2    2    3 ar   
     3    2    4 ar   
     4    3   12 ar   
     5    3   27 1    
     6    4    5 ar   
     7    4   28 1    
     8    5    6 ar   
     9    5   11 ar   
    10    6    7 ar   
    11    6   12 ar   
    12    7    8 1    
    13    7    9 ar   
    14    8   29 1    
    15    8   30 1    
    16    8   31 1    
    17    9   10 ar   
    18    9   32 1    
    19   10   11 ar   
    20   10   33 1    
    21   11   34 1    
    22   12   13 1    
    23   13   14 2    
    24   13   15 am   BACKBONE|DICT|INTERRES
    25   15   16 1    
    26   15   35 1    
    27   16   17 1    
    28   16   36 1    
    29   16   37 1    
    30   17   18 1    
    31   17   38 1    
    32   17   39 1    
    33   18   19 1    
    34   19   20 ar   
    35   19   23 ar   
    36   20   21 1    
    37   20   26 ar   
    38   21   22 1    
    39   22   40 1    
    40   22   41 1    
    41   22   42 1    
    42   23   24 ar   
    43   23   43 1    
    44   24   25 ar   
    45   24   44 1    
    46   25   26 ar   
    47   25   45 1    
    48   26   46 1    
@<TRIPOS>SUBSTRUCTURE
     1 LIG         1 GROUP             0 A     ****    0 ROOT    
