@<TRIPOS>MOLECULE
Mpro-x11801_ligand
41   42    1
SMALL
USER_CHARGES


@<TRIPOS>ATOM
      1 O1          8.6671    0.8505   21.0627 O.2       1 LIG        -0.5000 
      2 C9          8.1446   -0.2276   21.3604 C.2       1 LIG         0.5000 
      3 N1          7.0289   -0.6750   20.7795 N.am      1 LIG        -0.3850 
      4 C10         6.2864    0.0669   19.8454 C.ar      1 LIG        -0.2070 
      5 C14         5.1406    0.7914   20.2384 C.ar      1 LIG         0.1770 
      6 C15         4.6577    0.7951   21.6754 C.3       1 LIG        -0.0650 
      7 C13         4.4539    1.5332   19.2593 C.ar      1 LIG        -0.4470 
      8 C12         4.9239    1.4979   17.9361 C.ar      1 LIG         0.4730 
      9 N2          5.9999    0.7836   17.5582 N.ar      1 LIG        -0.6780 
     10 C11         6.6717    0.0848   18.4925 C.ar      1 LIG         0.4730 
     11 C8          8.7376   -1.1437   22.4372 C.3       1 LIG        -0.0050 
     12 C7         10.1787   -0.7764   22.7071 C.ar      1 LIG        -0.1150 
     13 C6         11.2203   -1.5161   22.1233 C.ar      1 LIG        -0.1150 
     14 C5         12.5487   -1.0791   22.2483 C.ar      1 LIG         0.1800 
     15 CL         13.7858   -1.9571   21.4413 Cl        1 LIG        -0.1800 
     16 C4         12.8455    0.0928   22.9722 C.ar      1 LIG        -0.1150 
     17 C16        10.4755    0.3572   23.4814 C.ar      1 LIG        -0.1150 
     18 C3         11.8009    0.8032   23.6015 C.ar      1 LIG        -0.1150 
     19 C2         12.0913    2.0070   24.4606 C.3       1 LIG         0.1950 
     20 N          12.0266    3.3099   23.8073 N.am      1 LIG        -0.5000 
     21 C1         10.8986    3.9535   23.4733 C.2       1 LIG         0.5000 
     22 O           9.7984    3.4123   23.4068 O.2       1 LIG        -0.5000 
     23 C          11.0179    5.4551   23.2454 C.3       1 LIG        -0.1800 
     24 HN1         6.6241   -1.5434   21.1111 H         1 LIG         0.3000 
     25 H151        3.7032    1.3142   21.7704 H         1 LIG         0.0600 
     26 H152        4.5268   -0.2242   22.0368 H         1 LIG         0.0600 
     27 H153        5.3809    1.2911   22.3209 H         1 LIG         0.0600 
     28 HC13        3.5835    2.1176   19.5105 H         1 LIG         0.1550 
     29 HC12        4.4340    2.0679   17.1626 H         1 LIG         0.0120 
     30 HC11        7.5364   -0.4668   18.1534 H         1 LIG         0.0120 
     31 H8_1        8.6740   -2.1842   22.1145 H         1 LIG         0.0600 
     32 H8_2        8.1532   -1.0531   23.3528 H         1 LIG         0.0600 
     33 HC6        10.9989   -2.3901   21.5317 H         1 LIG         0.1150 
     34 HC4        13.8685    0.4307   23.0579 H         1 LIG         0.1150 
     35 HC16        9.6748    0.9082   23.9505 H         1 LIG         0.1150 
     36 H2_1       13.0931    1.8572   24.8331 H         1 LIG         0.0600 
     37 H2_2       11.4336    2.0014   25.3306 H         1 LIG         0.0600 
     38 HN         12.8883    3.8338   23.7741 H         1 LIG         0.3000 
     39 HXT1       10.4052    5.7776   22.4049 H         1 LIG         0.0600 
     40 HXT2       10.6834    5.9943   24.1317 H         1 LIG         0.0600 
     41 HXT3       12.0533    5.7347   23.0483 H         1 LIG         0.0600 
@<TRIPOS>BOND
     1    1    2 2    
     2    2    3 am   BACKBONE|DICT|INTERRES
     3    2   11 1    
     4    3    4 1    
     5    3   24 1    
     6    4    5 ar   
     7    4   10 ar   
     8    5    6 1    
     9    5    7 ar   
    10    6   25 1    
    11    6   26 1    
    12    6   27 1    
    13    7    8 ar   
    14    7   28 1    
    15    8    9 ar   
    16    8   29 1    
    17    9   10 ar   
    18   10   30 1    
    19   11   12 1    
    20   11   31 1    
    21   11   32 1    
    22   12   13 ar   
    23   12   17 ar   
    24   13   14 ar   
    25   13   33 1    
    26   14   15 1    
    27   14   16 ar   
    28   16   18 ar   
    29   16   34 1    
    30   17   18 ar   
    31   17   35 1    
    32   18   19 1    
    33   19   20 1    
    34   19   36 1    
    35   19   37 1    
    36   20   21 am   BACKBONE|DICT|INTERRES
    37   20   38 1    
    38   21   22 2    
    39   21   23 1    
    40   23   39 1    
    41   23   40 1    
    42   23   41 1    
@<TRIPOS>SUBSTRUCTURE
     1 LIG         1 GROUP             0 A     ****    0 ROOT    
