@<TRIPOS>MOLECULE
Mpro-x2572_ligand
32   33    1
SMALL
USER_CHARGES


@<TRIPOS>ATOM
      1 N2         14.2212   -2.1288   20.4807 N.1       1 LIG        -0.4300 
      2 C13        13.5380   -1.5799   21.2298 C.1       1 LIG         0.3950 
      3 C12        12.6703   -0.8926   22.1589 C.ar      1 LIG         0.0350 
      4 C11        13.1739    0.0995   23.0228 C.ar      1 LIG        -0.1150 
      5 C10        12.3031    0.7696   23.9026 C.ar      1 LIG        -0.1150 
      6 C9         10.9300    0.4616   23.9015 C.ar      1 LIG        -0.1150 
      7 C14        11.3015   -1.2097   22.1695 C.ar      1 LIG        -0.1150 
      8 C8         10.4251   -0.5123   23.0198 C.ar      1 LIG        -0.1150 
      9 C7          8.9312   -0.7400   22.9080 C.3       1 LIG        -0.0050 
     10 C6          8.3754    0.0025   21.6884 C.2       1 LIG         0.5000 
     11 O           9.0401    0.8668   21.1102 O.2       1 LIG        -0.5000 
     12 N1          7.1328   -0.3333   21.3163 N.am      1 LIG        -0.3850 
     13 C5          6.4722    0.2268   20.2032 C.ar      1 LIG        -0.2070 
     14 C1          5.2369    0.8946   20.3528 C.ar      1 LIG         0.1770 
     15 C           4.5868    1.0566   21.7116 C.3       1 LIG        -0.0650 
     16 C4          7.0377    0.1340   18.9155 C.ar      1 LIG         0.4730 
     17 N           6.4584    0.6686   17.8276 N.ar      1 LIG        -0.6780 
     18 C3          5.2865    1.3155   17.9711 C.ar      1 LIG         0.4730 
     19 C2          4.6363    1.4571   19.2093 C.ar      1 LIG        -0.4470 
     20 HC11       14.2208    0.3578   23.0077 H         1 LIG         0.1150 
     21 HC10       12.6814    1.5405   24.5536 H         1 LIG         0.1150 
     22 HC9        10.2491    0.9973   24.5417 H         1 LIG         0.1150 
     23 HC14       10.9090   -1.9565   21.4953 H         1 LIG         0.1150 
     24 H7_1        8.4237   -0.3903   23.8077 H         1 LIG         0.0600 
     25 H7_2        8.7307   -1.8085   22.8169 H         1 LIG         0.0600 
     26 HN1         6.5933   -0.9320   21.9248 H         1 LIG         0.3000 
     27 HXT1        3.5669    1.4299   21.6171 H         1 LIG         0.0600 
     28 HXT2        4.5517    0.1035   22.2396 H         1 LIG         0.0600 
     29 HXT3        5.1539    1.7667   22.3150 H         1 LIG         0.0600 
     30 HC4         7.9808   -0.3682   18.7541 H         1 LIG         0.0120 
     31 HC3         4.8734    1.7511   17.0762 H         1 LIG         0.0120 
     32 HC2         3.7074    2.0030   19.2768 H         1 LIG         0.1550 
@<TRIPOS>BOND
     1    1    2 3    
     2    2    3 1    
     3    3    4 ar   
     4    3    7 ar   
     5    4    5 ar   
     6    4   20 1    
     7    5    6 ar   
     8    5   21 1    
     9    6    8 ar   
    10    6   22 1    
    11    7    8 ar   
    12    7   23 1    
    13    8    9 1    
    14    9   10 1    
    15    9   24 1    
    16    9   25 1    
    17   10   11 2    
    18   10   12 am   BACKBONE|DICT|INTERRES
    19   12   13 1    
    20   12   26 1    
    21   13   14 ar   
    22   13   16 ar   
    23   14   15 1    
    24   14   19 ar   
    25   15   27 1    
    26   15   28 1    
    27   15   29 1    
    28   16   17 ar   
    29   16   30 1    
    30   17   18 ar   
    31   18   19 ar   
    32   18   31 1    
    33   19   32 1    
@<TRIPOS>SUBSTRUCTURE
     1 LIG         1 GROUP             0 A     ****    0 ROOT    
