@<TRIPOS>MOLECULE
Mpro-x11276_ligand
43   45    1
SMALL
USER_CHARGES


@<TRIPOS>ATOM
      1 F           4.2931   -0.4527   22.6982 F         1 LIG        -0.2200 
      2 C17         3.9251    0.4575   21.7670 C.ar      1 LIG         0.2200 
      3 C16         2.9119    1.3774   22.1010 C.ar      1 LIG        -0.1150 
      4 C15         2.5037    2.3595   21.1817 C.ar      1 LIG        -0.1150 
      5 C14         3.1220    2.4356   19.9224 C.ar      1 LIG        -0.1150 
      6 C18         4.5286    0.4977   20.4830 C.ar      1 LIG         0.0000 
      7 C13         4.1295    1.5163   19.5871 C.ar      1 LIG         0.0850 
      8 N1          4.7598    1.6331   18.3314 N.pl3     1 LIG        -0.3850 
      9 C12         5.7530    0.8472   17.8855 C.ar      1 LIG         0.5567 
     10 O3          6.2927    1.0911   16.8158 O.2       1 LIG        -0.5000 
     11 C11         6.1295   -0.2639   18.7548 C.ar      1 LIG        -0.1717 
     12 C10         5.5692   -0.4309   19.9730 C.ar      1 LIG        -0.0567 
     13 C9          5.8687   -1.6380   20.7207 C.2       1 LIG         0.5567 
     14 O2          5.1686   -2.6486   20.7291 O.2       1 LIG        -0.5000 
     15 N           6.9967   -1.5279   21.4320 N.am      1 LIG        -0.5000 
     16 C8          7.5052   -2.5466   22.3423 C.3       1 LIG         0.0800 
     17 C7          9.0285   -2.4809   22.3955 C.3       1 LIG         0.1400 
     18 O1          9.4024   -1.2096   22.9009 O.3       1 LIG        -0.2850 
     19 C6         10.7235   -0.8366   22.7987 C.ar      1 LIG         0.0850 
     20 C1         11.0306    0.5040   23.1185 C.ar      1 LIG         0.0850 
     21 O           9.9781    1.3140   23.4884 O.3       1 LIG        -0.2850 
     22 C          10.2166    2.7082   23.5866 C.3       1 LIG         0.1100 
     23 C5         11.7548   -1.7133   22.3827 C.ar      1 LIG        -0.1150 
     24 C4         13.0784   -1.2574   22.2699 C.ar      1 LIG        -0.1150 
     25 C3         13.3836    0.0711   22.6077 C.ar      1 LIG        -0.1150 
     26 C2         12.3718    0.9491   23.0308 C.ar      1 LIG        -0.1150 
     27 HC16        2.4444    1.3240   23.0726 H         1 LIG         0.1150 
     28 HC15        1.7270    3.0616   21.4469 H         1 LIG         0.1150 
     29 HC14        2.8280    3.1993   19.2170 H         1 LIG         0.1150 
     30 HN1         4.4810    2.4149   17.7503 H         1 LIG         0.3000 
     31 HC11        6.8448   -0.9818   18.3823 H         1 LIG         0.1150 
     32 HN          7.5222   -0.6660   21.3617 H         1 LIG         0.3000 
     33 H8_1        7.2041   -3.5451   22.0215 H         1 LIG         0.0600 
     34 H8_2        7.0818   -2.3857   23.3342 H         1 LIG         0.0600 
     35 H7_1        9.4239   -2.6346   21.3908 H         1 LIG         0.0300 
     36 H7_2        9.4169   -3.2675   23.0436 H         1 LIG         0.0300 
     37 HXT1        9.2830    3.2195   23.8202 H         1 LIG         0.0300 
     38 HXT2       10.9251    2.9312   24.3823 H         1 LIG         0.0300 
     39 HXT3       10.5941    3.1134   22.6462 H         1 LIG         0.0300 
     40 HC5        11.5517   -2.7414   22.1361 H         1 LIG         0.1150 
     41 HC4        13.8567   -1.9271   21.9363 H         1 LIG         0.1150 
     42 HC3        14.3924    0.4335   22.5162 H         1 LIG         0.1150 
     43 HC2        12.6512    1.9653   23.2639 H         1 LIG         0.1150 
@<TRIPOS>BOND
     1    1    2 1    
     2    2    3 ar   
     3    2    6 ar   
     4    3    4 ar   
     5    3   27 1    
     6    4    5 ar   
     7    4   28 1    
     8    5    7 ar   
     9    5   29 1    
    10    6    7 ar   
    11    6   12 ar   
    12    7    8 ar   
    13    8    9 ar   
    14    8   30 1    
    15    9   10 2    
    16    9   11 ar   
    17   11   12 ar   
    18   11   31 1    
    19   12   13 1    
    20   13   14 2    
    21   13   15 am   BACKBONE|DICT|INTERRES
    22   15   16 1    
    23   15   32 1    
    24   16   17 1    
    25   16   33 1    
    26   16   34 1    
    27   17   18 1    
    28   17   35 1    
    29   17   36 1    
    30   18   19 1    
    31   19   20 ar   
    32   19   23 ar   
    33   20   21 1    
    34   20   26 ar   
    35   21   22 1    
    36   22   37 1    
    37   22   38 1    
    38   22   39 1    
    39   23   24 ar   
    40   23   40 1    
    41   24   25 ar   
    42   24   41 1    
    43   25   26 ar   
    44   25   42 1    
    45   26   43 1    
@<TRIPOS>SUBSTRUCTURE
     1 LIG         1 GROUP             0 A     ****    0 ROOT    
