@<TRIPOS>MOLECULE
Mpro-x12300_ligand
46   47    1
SMALL
USER_CHARGES


@<TRIPOS>ATOM
      1 N3          6.1349    1.3441   24.5988 N.1       1 LIG        -0.5600 
      2 C17         6.0834    0.7185   25.5707 C.1       1 LIG         0.4600 
      3 C14         6.0161   -0.0700   26.8124 C.3       1 LIG         0.1000 
      4 C15         4.7462   -0.9361   26.7734 C.3       1 LIG        -0.1800 
      5 C16         5.9270    0.8993   28.0043 C.3       1 LIG        -0.1800 
      6 C13         7.2478   -0.9939   26.9655 C.3       1 LIG         0.0800 
      7 N2          8.5233   -0.3039   26.8039 N.pl3     1 LIG        -0.7800 
      8 C12         9.2402   -0.3055   25.5974 C.ar      1 LIG         0.2000 
      9 C11        10.4814    0.3619   25.5646 C.ar      1 LIG        -0.1150 
     10 C10        11.2468    0.3905   24.3841 C.ar      1 LIG         0.1800 
     11 CL         12.7587    1.2014   24.3424 Cl        1 LIG        -0.1800 
     12 C9         10.7849   -0.2509   23.2262 C.ar      1 LIG        -0.1150 
     13 C18         8.7735   -0.9391   24.4219 C.ar      1 LIG        -0.1150 
     14 C8          9.5430   -0.9112   23.2422 C.ar      1 LIG        -0.1150 
     15 C7          9.0106   -1.5445   21.9760 C.3       1 LIG        -0.0050 
     16 C6          8.2754   -0.4888   21.1519 C.2       1 LIG         0.5000 
     17 O           8.7941    0.6103   20.9419 O.2       1 LIG        -0.5000 
     18 N1          7.0502   -0.8078   20.7149 N.am      1 LIG        -0.3850 
     19 C5          6.3557   -0.0252   19.7698 C.ar      1 LIG        -0.2070 
     20 C1          5.2881    0.8282   20.1301 C.ar      1 LIG         0.1770 
     21 C           4.8072    0.9597   21.5589 C.3       1 LIG        -0.0650 
     22 C4          6.7494   -0.0768   18.4196 C.ar      1 LIG         0.4730 
     23 N           6.1702    0.6583   17.4510 N.ar      1 LIG        -0.6780 
     24 C3          5.1628    1.4806   17.8016 C.ar      1 LIG         0.4730 
     25 C2          4.6862    1.6026   19.1195 C.ar      1 LIG        -0.4470 
     26 H151        4.6373   -1.5224   27.6865 H         1 LIG         0.0600 
     27 H152        3.8507   -0.3233   26.6624 H         1 LIG         0.0600 
     28 H153        4.7701   -1.6330   25.9348 H         1 LIG         0.0600 
     29 H161        5.8744    0.3624   28.9522 H         1 LIG         0.0600 
     30 H162        6.7934    1.5604   28.0452 H         1 LIG         0.0600 
     31 H163        5.0414    1.5316   27.9327 H         1 LIG         0.0600 
     32 H131        7.1777   -1.8536   26.3019 H         1 LIG         0.0600 
     33 H132        7.2480   -1.4200   27.9675 H         1 LIG         0.0600 
     34 HN2         8.9228    0.1404   27.6201 H         1 LIG         0.3800 
     35 HC11       10.8556    0.8510   26.4486 H         1 LIG         0.1150 
     36 HC9        11.3741   -0.2188   22.3220 H         1 LIG         0.1150 
     37 HC18        7.8176   -1.4378   24.3907 H         1 LIG         0.1150 
     38 H7_1        8.3486   -2.3767   22.2212 H         1 LIG         0.0600 
     39 H7_2        9.8334   -1.9529   21.3887 H         1 LIG         0.0600 
     40 HN1         6.6354   -1.6839   20.9987 H         1 LIG         0.3000 
     41 HXT1        3.7504    1.2236   21.5866 H         1 LIG         0.0600 
     42 HXT2        4.9383    0.0348   22.1192 H         1 LIG         0.0600 
     43 HXT3        5.3649    1.7502   22.0564 H         1 LIG         0.0600 
     44 HC4         7.5665   -0.7118   18.1108 H         1 LIG         0.0120 
     45 HC3         4.7387    2.0726   17.0069 H         1 LIG         0.0120 
     46 HC2         3.8820    2.2868   19.3436 H         1 LIG         0.1550 
@<TRIPOS>BOND
     1    1    2 3    
     2    2    3 1    
     3    3    4 1    
     4    3    5 1    
     5    3    6 1    
     6    4   26 1    
     7    4   27 1    
     8    4   28 1    
     9    5   29 1    
    10    5   30 1    
    11    5   31 1    
    12    6    7 1    
    13    6   32 1    
    14    6   33 1    
    15    7    8 1    
    16    7   34 1    
    17    8    9 ar   
    18    8   13 ar   
    19    9   10 ar   
    20    9   35 1    
    21   10   11 1    
    22   10   12 ar   
    23   12   14 ar   
    24   12   36 1    
    25   13   14 ar   
    26   13   37 1    
    27   14   15 1    
    28   15   16 1    
    29   15   38 1    
    30   15   39 1    
    31   16   17 2    
    32   16   18 am   BACKBONE|DICT|INTERRES
    33   18   19 1    
    34   18   40 1    
    35   19   20 ar   
    36   19   22 ar   
    37   20   21 1    
    38   20   25 ar   
    39   21   41 1    
    40   21   42 1    
    41   21   43 1    
    42   22   23 ar   
    43   22   44 1    
    44   23   24 ar   
    45   24   25 ar   
    46   24   45 1    
    47   25   46 1    
@<TRIPOS>SUBSTRUCTURE
     1 LIG         1 GROUP             0 A     ****    0 ROOT    
