@<TRIPOS>MOLECULE
Mpro-x12000_ligand
35   37    1
SMALL
USER_CHARGES


@<TRIPOS>ATOM
      1 O           8.8990    0.8750   21.0410 O.2       1 LIG        -0.5000 
      2 C6          8.3464   -0.1570   21.4278 C.2       1 LIG         0.5000 
      3 C5          8.8890   -0.9514   22.6220 C.3       1 LIG        -0.0050 
      4 C4         10.3675   -0.6800   22.8085 C.ar      1 LIG        -0.1150 
      5 C3         10.8099    0.3521   23.6610 C.ar      1 LIG        -0.1150 
      6 C2         12.1814    0.6598   23.7337 C.ar      1 LIG        -0.1150 
      7 C1         13.1078   -0.0562   22.9508 C.ar      1 LIG        -0.1150 
      8 C15        11.3003   -1.4226   22.0639 C.ar      1 LIG        -0.1150 
      9 C          12.6640   -1.0969   22.1132 C.ar      1 LIG         0.1800 
     10 CL         13.7713   -1.9646   21.1216 Cl        1 LIG        -0.1800 
     11 N           7.2457   -0.6522   20.8505 N.am      1 LIG        -0.3850 
     12 C7          6.5329    0.0101   19.8364 C.ar      1 LIG        -0.2070 
     13 C14         5.4058    0.7923   20.1357 C.ar      1 LIG         0.1770 
     14 C13         4.8031    1.0845   21.4813 C.3       1 LIG        -0.0050 
     15 C12         3.5360    1.9047   21.1400 C.3       1 LIG        -0.1200 
     16 C11         3.6130    2.2913   19.6443 C.3       1 LIG         0.0430 
     17 C10         4.7361    1.4488   19.1185 C.ar      1 LIG        -0.4550 
     18 C9          5.1667    1.3031   17.7903 C.ar      1 LIG         0.4730 
     19 N1          6.2374    0.5384   17.4786 N.ar      1 LIG        -0.6780 
     20 C8          6.9067   -0.0854   18.4787 C.ar      1 LIG         0.4730 
     21 H5_1        8.7341   -2.0198   22.4645 H         1 LIG         0.0600 
     22 H5_2        8.3416   -0.6784   23.5229 H         1 LIG         0.0600 
     23 HC3        10.0982    0.9320   24.2291 H         1 LIG         0.1150 
     24 HC2        12.5168    1.4642   24.3688 H         1 LIG         0.1150 
     25 HC1        14.1553    0.1985   22.9866 H         1 LIG         0.1150 
     26 HC15       10.9596   -2.2226   21.4265 H         1 LIG         0.1150 
     27 HN          6.8108   -1.4678   21.2667 H         1 LIG         0.3000 
     28 H131        5.5065    1.6679   22.0754 H         1 LIG         0.0600 
     29 H132        4.5663    0.1656   22.0181 H         1 LIG         0.0600 
     30 H121        3.4068    2.7718   21.7875 H         1 LIG         0.0600 
     31 H122        2.6653    1.2667   21.2846 H         1 LIG         0.0600 
     32 H111        3.8727    3.3412   19.5244 H         1 LIG         0.0600 
     33 H112        2.6813    2.1052   19.1170 H         1 LIG         0.0600 
     34 HC9         4.6807    1.8186   16.9785 H         1 LIG         0.0120 
     35 HC8         7.7686   -0.6672   18.1869 H         1 LIG         0.0120 
@<TRIPOS>BOND
     1    1    2 2    
     2    2    3 1    
     3    2   11 am   BACKBONE|DICT|INTERRES
     4    3    4 1    
     5    3   21 1    
     6    3   22 1    
     7    4    5 ar   
     8    4    8 ar   
     9    5    6 ar   
    10    5   23 1    
    11    6    7 ar   
    12    6   24 1    
    13    7    9 ar   
    14    7   25 1    
    15    8    9 ar   
    16    8   26 1    
    17    9   10 1    
    18   11   12 1    
    19   11   27 1    
    20   12   13 ar   
    21   12   20 ar   
    22   13   14 1    
    23   13   17 ar   
    24   14   15 1    
    25   14   28 1    
    26   14   29 1    
    27   15   16 1    
    28   15   30 1    
    29   15   31 1    
    30   16   17 1    
    31   16   32 1    
    32   16   33 1    
    33   17   18 ar   
    34   18   19 ar   
    35   18   34 1    
    36   19   20 ar   
    37   20   35 1    
@<TRIPOS>SUBSTRUCTURE
     1 LIG         1 GROUP             0 A     ****    0 ROOT    
