@<TRIPOS>MOLECULE
Mpro-x12710_ligand
43   46    1
SMALL
USER_CHARGES


@<TRIPOS>ATOM
      1 CL         13.7948   -1.8185   21.2575 Cl        1 LIG        -0.1800 
      2 C16        12.5582   -1.1201   22.2274 C.ar      1 LIG         0.1800 
      3 C15        11.2455   -1.5839   22.0827 C.ar      1 LIG        -0.1150 
      4 C17        12.8370   -0.0698   23.1194 C.ar      1 LIG        -0.1150 
      5 C18        11.8079    0.4553   23.9272 C.ar      1 LIG        -0.1150 
      6 C19        10.4739   -0.0118   23.8032 C.ar      1 LIG         0.2100 
      7 N           9.4334    0.4924   24.6216 N.pl3     1 LIG        -0.6300 
      8 C           9.7287    1.3789   25.7357 C.3       1 LIG         0.0300 
      9 C14        10.2007   -1.0066   22.8246 C.ar      1 LIG        -0.1150 
     10 C3          8.7727   -1.4208   22.5064 C.3       1 LIG         0.0550 
     11 C2          7.9005   -1.2629   23.7592 C.3       1 LIG        -0.1200 
     12 C1          8.0423    0.1453   24.3443 C.3       1 LIG         0.0900 
     13 C4          8.2462   -0.5503   21.3494 C.2       1 LIG         0.5000 
     14 O           8.7700    0.5343   21.0783 O.2       1 LIG        -0.5000 
     15 N1          7.1976   -1.0305   20.6682 N.am      1 LIG        -0.3850 
     16 C5          6.4777   -0.2490   19.7399 C.ar      1 LIG        -0.4271 
     17 C13         5.3817    0.5504   20.1368 C.ar      1 LIG         0.6486 
     18 C12         4.9089    0.5776   21.4674 C.ar      1 LIG        -0.4445 
     19 C11         3.8239    1.4035   21.8123 C.ar      1 LIG        -0.0460 
     20 C10         3.2098    2.2105   20.8368 C.ar      1 LIG        -0.1533 
     21 C9          3.6766    2.1943   19.5087 C.ar      1 LIG        -0.1818 
     22 C8          4.7546    1.3588   19.1591 C.ar      1 LIG        -0.2505 
     23 C7          5.2352    1.3090   17.8372 C.ar      1 LIG         0.3967 
     24 N2          6.2672    0.5313   17.4550 N.ar      1 LIG        -0.6841 
     25 C6          6.8728   -0.2286   18.3901 C.ar      1 LIG         0.4845 
     26 HC15       11.0318   -2.3584   21.3644 H         1 LIG         0.1150 
     27 HC17       13.8448    0.3058   23.2114 H         1 LIG         0.1150 
     28 HC18       12.0681    1.2300   24.6318 H         1 LIG         0.1150 
     29 HXT1        8.8159    1.7082   26.2324 H         1 LIG         0.0600 
     30 HXT2       10.3353    0.8547   26.4727 H         1 LIG         0.0600 
     31 HXT3       10.2587    2.2707   25.4014 H         1 LIG         0.0600 
     32 HC3         8.7650   -2.4642   22.1883 H         1 LIG         0.0600 
     33 H2_1        8.2156   -1.9819   24.5147 H         1 LIG         0.0600 
     34 H2_2        6.8546   -1.4833   23.5430 H         1 LIG         0.0600 
     35 H1_1        7.6237    0.8915   23.6681 H         1 LIG         0.0600 
     36 H1_2        7.4630    0.2061   25.2650 H         1 LIG         0.0600 
     37 HN1         6.7944   -1.9159   20.9499 H         1 LIG         0.3000 
     38 HC12        5.3655   -0.0293   22.2335 H         1 LIG         0.2009 
     39 HC11        3.4631    1.4184   22.8294 H         1 LIG         0.1382 
     40 HC10        2.3816    2.8470   21.1099 H         1 LIG         0.1414 
     41 HC9         3.2074    2.8216   18.7633 H         1 LIG         0.1598 
     42 HC7         4.8039    1.9270   17.0662 H         1 LIG         0.0566 
     43 HC6         7.7106   -0.8233   18.0568 H         1 LIG         0.0456 
@<TRIPOS>BOND
     1    1    2 1    
     2    2    3 ar   
     3    2    4 ar   
     4    3    9 ar   
     5    3   26 1    
     6    4    5 ar   
     7    4   27 1    
     8    5    6 ar   
     9    5   28 1    
    10    6    7 1    
    11    6    9 ar   
    12    7    8 1    
    13    7   12 1    
    14    8   29 1    
    15    8   30 1    
    16    8   31 1    
    17    9   10 1    
    18   10   11 1    
    19   10   13 1    
    20   10   32 1    
    21   11   12 1    
    22   11   33 1    
    23   11   34 1    
    24   12   35 1    
    25   12   36 1    
    26   13   14 2    
    27   13   15 am   BACKBONE|DICT|INTERRES
    28   15   16 1    
    29   15   37 1    
    30   16   17 ar   
    31   16   25 ar   
    32   17   18 ar   
    33   17   22 ar   
    34   18   19 ar   
    35   18   38 1    
    36   19   20 ar   
    37   19   39 1    
    38   20   21 ar   
    39   20   40 1    
    40   21   22 ar   
    41   21   41 1    
    42   22   23 ar   
    43   23   24 ar   
    44   23   42 1    
    45   24   25 ar   
    46   25   43 1    
@<TRIPOS>SUBSTRUCTURE
     1 LIG         1 GROUP             0 A     ****    0 ROOT    
