@<TRIPOS>MOLECULE
Mpro-x10870_ligand
52   56    1
SMALL
USER_CHARGES


@<TRIPOS>ATOM
      1 S          13.6963   -1.9455   24.8933 S.3       1 LIG         0.0328 
      2 N           7.1292   -0.1522   20.0116 N.pl3     1 LIG         0.0636 
      3 N3          9.6604   -0.3377   22.7173 N.am      1 LIG        -0.0317 
      4 N2          6.6190    0.5641   18.0469 N.2       1 LIG        -0.4222 
      5 C1          7.9567   -0.8320   20.9833 C.3       1 LIG         0.0025 
      6 C11        13.6522   -2.0855   23.1615 C.2       1 LIG        -0.3255 
      7 C18         6.3738   -5.8807   27.4019 C.3       1 LIG        -0.0600 
      8 O1          6.5559   -3.5139   27.6065 O.2       1 LIG        -0.5000 
      9 C8         10.8155    0.3841   23.2670 C.3       1 LIG         0.0650 
     10 C2          5.6697    1.0194   18.9374 C.ar      1 LIG         0.2502 
     11 C6          5.1668    0.8597   21.3464 C.ar      1 LIG        -0.1150 
     12 C16         8.0361   -3.4787   25.0649 C.ar      1 LIG         0.0850 
     13 C5          4.0294    1.6658   21.1540 C.ar      1 LIG        -0.1150 
     14 C4          3.7216    2.1593   19.8685 C.ar      1 LIG        -0.1150 
     15 C10        12.6909   -1.2835   22.6080 C.2       1 LIG        -0.0738 
     16 C13         9.1259   -1.3991   23.4923 C.ar      1 LIG        -0.0383 
     17 C20         4.9420   -6.2511   27.0790 C.3       1 LIG        -0.1200 
     18 C17         6.8193   -4.5322   26.9667 C.2       1 LIG         0.5000 
     19 C22         9.6170   -2.7149   23.3624 C.ar      1 LIG        -0.1150 
     20 C9         11.9636   -0.5321   23.5784 C.2       1 LIG        -0.0677 
     21 C12        12.3946   -0.7920   24.8534 C.2       1 LIG        -0.3255 
     22 C19         5.3431   -5.9925   28.5080 C.3       1 LIG        -0.1200 
     23 C14         8.0740   -1.1296   24.3884 C.ar      1 LIG        -0.1150 
     24 C           9.0294    0.0857   21.5978 C.2       1 LIG         0.5000 
     25 N1          7.4842   -0.1471   18.6988 N.2       1 LIG         0.0816 
     26 O           9.2716    1.1741   21.0718 O.2       1 LIG        -0.5000 
     27 C7          5.9674    0.5549   20.2340 C.ar      1 LIG        -0.0957 
     28 C3          4.5374    1.8406   18.7635 C.ar      1 LIG        -0.1150 
     29 C15         7.5137   -2.1663   25.1519 C.ar      1 LIG        -0.1150 
     30 C21         9.0775   -3.7475   24.1525 C.ar      1 LIG        -0.1150 
     31 N4          7.5399   -4.5651   25.8307 N.am      1 LIG        -0.3850 
     32 H1_1        8.4635   -1.6721   20.5191 H         1 LIG         0.0600 
     33 H1_2        7.2842   -1.2396   21.7369 H         1 LIG         0.0600 
     34 HC11       14.3146   -2.7676   22.6595 H         1 LIG         0.2618 
     35 HC18        7.1200   -6.6648   27.3383 H         1 LIG         0.0600 
     36 H8_1       10.4771    0.8971   24.1666 H         1 LIG         0.0600 
     37 H8_2       11.1699    1.1725   22.6021 H         1 LIG         0.0600 
     38 HC6         5.4181    0.4863   22.3280 H         1 LIG         0.1150 
     39 HC5         3.3961    1.9148   21.9911 H         1 LIG         0.1150 
     40 HC4         2.8607    2.7931   19.7290 H         1 LIG         0.1150 
     41 HC10       12.4733   -1.2373   21.5526 H         1 LIG         0.1211 
     42 H201        4.7494   -7.2791   26.7845 H         1 LIG         0.0600 
     43 H202        4.3147   -5.5056   26.5929 H         1 LIG         0.0600 
     44 HC22       10.4155   -2.9322   22.6691 H         1 LIG         0.1150 
     45 HC12       12.0023   -0.3927   25.7714 H         1 LIG         0.2618 
     46 H191        4.9682   -5.0823   28.9731 H         1 LIG         0.0600 
     47 H192        5.4313   -6.8468   29.1765 H         1 LIG         0.0600 
     48 HC14        7.6849   -0.1285   24.4824 H         1 LIG         0.1150 
     49 HC3         4.3073    2.2349   17.7859 H         1 LIG         0.1150 
     50 HC15        6.6935   -1.9227   25.8079 H         1 LIG         0.1150 
     51 HC21        9.4743   -4.7486   24.0643 H         1 LIG         0.1150 
     52 HN4         7.7734   -5.4833   25.4826 H         1 LIG         0.3000 
@<TRIPOS>BOND
     1    1    6 1    
     2    1   21 1    
     3    2    5 1    
     4    2   25 ar   
     5    2   27 ar   
     6    3    9 1    
     7    3   16 1    
     8    3   24 am   BACKBONE|DICT|INTERRES
     9    4   10 ar   
    10    4   25 ar   
    11    5   24 1    
    12    5   32 1    
    13    5   33 1    
    14    6   15 2    
    15    6   34 1    
    16    7   17 1    
    17    7   18 1    
    18    7   22 1    
    19    7   35 1    
    20    8   18 2    
    21    9   20 1    
    22    9   36 1    
    23    9   37 1    
    24   10   27 ar   
    25   10   28 ar   
    26   11   13 ar   
    27   11   27 ar   
    28   11   38 1    
    29   12   29 ar   
    30   12   30 ar   
    31   12   31 1    
    32   13   14 ar   
    33   13   39 1    
    34   14   28 ar   
    35   14   40 1    
    36   15   20 1    
    37   15   41 1    
    38   16   19 ar   
    39   16   23 ar   
    40   17   22 1    
    41   17   42 1    
    42   17   43 1    
    43   18   31 am   BACKBONE|DICT|INTERRES
    44   19   30 ar   
    45   19   44 1    
    46   20   21 2    
    47   21   45 1    
    48   22   46 1    
    49   22   47 1    
    50   23   29 ar   
    51   23   48 1    
    52   24   26 2    
    53   28   49 1    
    54   29   50 1    
    55   30   51 1    
    56   31   52 1    
@<TRIPOS>SUBSTRUCTURE
     1 LIG         1 GROUP             0 A     ****    0 ROOT    
