@<TRIPOS>MOLECULE
Mpro-x10423_ligand
40   41    1
SMALL
USER_CHARGES


@<TRIPOS>ATOM
      1 CL         13.7583   -2.0796   21.3230 Cl        1 LIG        -0.1800 
      2 C15        12.6660   -1.0660   22.1787 C.ar      1 LIG         0.1800 
      3 C14        13.1189    0.1115   22.8026 C.ar      1 LIG        -0.1150 
      4 C13        12.1986    0.9707   23.4289 C.ar      1 LIG        -0.1150 
      5 C12        10.8287    0.6543   23.4231 C.ar      1 LIG        -0.1150 
      6 C16        11.2991   -1.3878   22.1843 C.ar      1 LIG        -0.1150 
      7 C11        10.3684   -0.5215   22.7876 C.ar      1 LIG        -0.1150 
      8 C3          8.8805   -0.8372   22.6781 C.3       1 LIG         0.0550 
      9 C2          8.0977   -0.6179   23.9926 C.3       1 LIG        -0.1200 
     10 C1          8.6224   -1.4638   25.1656 C.3       1 LIG        -0.1200 
     11 C           7.8320   -1.2291   26.4563 C.3       1 LIG        -0.1800 
     12 C4          8.2618   -0.0333   21.5233 C.2       1 LIG         0.5000 
     13 O           8.7534    1.0359   21.1517 O.2       1 LIG        -0.5000 
     14 N           7.1774   -0.5683   20.9473 N.am      1 LIG        -0.3850 
     15 C5          6.4010    0.1172   19.9941 C.ar      1 LIG        -0.2070 
     16 C9          5.2426    0.8345   20.3711 C.ar      1 LIG         0.1770 
     17 C10         4.7743    0.8832   21.8125 C.3       1 LIG        -0.0650 
     18 C8          4.5404    1.5388   19.3741 C.ar      1 LIG        -0.4470 
     19 C7          5.0175    1.4859   18.0527 C.ar      1 LIG         0.4730 
     20 N1          6.1069    0.7834   17.6913 N.ar      1 LIG        -0.6780 
     21 C6          6.7844    0.1105   18.6407 C.ar      1 LIG         0.4730 
     22 HC14       14.1636    0.3731   22.7719 H         1 LIG         0.1150 
     23 HC13       12.5384    1.8868   23.8846 H         1 LIG         0.1150 
     24 HC12       10.1303    1.3373   23.8774 H         1 LIG         0.1150 
     25 HC16       10.9630   -2.2801   21.6794 H         1 LIG         0.1150 
     26 HC3         8.7932   -1.8930   22.4165 H         1 LIG         0.0600 
     27 H2_1        7.0466   -0.8618   23.8317 H         1 LIG         0.0600 
     28 H2_2        8.1118    0.4363   24.2721 H         1 LIG         0.0600 
     29 H1_1        9.6706   -1.2330   25.3543 H         1 LIG         0.0600 
     30 H1_2        8.5835   -2.5217   24.9030 H         1 LIG         0.0600 
     31 HXT1        8.2190   -1.8473   27.2670 H         1 LIG         0.0600 
     32 HXT2        7.8943   -0.1878   26.7724 H         1 LIG         0.0600 
     33 HXT3        6.7795   -1.4799   26.3238 H         1 LIG         0.0600 
     34 HN          6.8073   -1.4361   21.3168 H         1 LIG         0.3000 
     35 H101        3.7736    1.3090   21.8861 H         1 LIG         0.0600 
     36 H102        4.7486   -0.1176   22.2426 H         1 LIG         0.0600 
     37 H103        5.4513    1.4951   22.4092 H         1 LIG         0.0600 
     38 HC8         3.6625    2.1204   19.6110 H         1 LIG         0.1550 
     39 HC7         4.5270    2.0364   17.2671 H         1 LIG         0.0120 
     40 HC6         7.6619   -0.4295   18.3150 H         1 LIG         0.0120 
@<TRIPOS>BOND
     1    1    2 1    
     2    2    3 ar   
     3    2    6 ar   
     4    3    4 ar   
     5    3   22 1    
     6    4    5 ar   
     7    4   23 1    
     8    5    7 ar   
     9    5   24 1    
    10    6    7 ar   
    11    6   25 1    
    12    7    8 1    
    13    8    9 1    
    14    8   12 1    
    15    8   26 1    
    16    9   10 1    
    17    9   27 1    
    18    9   28 1    
    19   10   11 1    
    20   10   29 1    
    21   10   30 1    
    22   11   31 1    
    23   11   32 1    
    24   11   33 1    
    25   12   13 2    
    26   12   14 am   BACKBONE|DICT|INTERRES
    27   14   15 1    
    28   14   34 1    
    29   15   16 ar   
    30   15   21 ar   
    31   16   17 1    
    32   16   18 ar   
    33   17   35 1    
    34   17   36 1    
    35   17   37 1    
    36   18   19 ar   
    37   18   38 1    
    38   19   20 ar   
    39   19   39 1    
    40   20   21 ar   
    41   21   40 1    
@<TRIPOS>SUBSTRUCTURE
     1 LIG         1 GROUP             0 A     ****    0 ROOT    
