@<TRIPOS>MOLECULE
Mpro-x10422_ligand
37   38    1
SMALL
USER_CHARGES


@<TRIPOS>ATOM
      1 CL         13.8564   -1.8948   21.0369 Cl        1 LIG        -0.1800 
      2 C14        12.8470   -0.9350   22.0486 C.ar      1 LIG         0.1800 
      3 C13        13.3873    0.1442   22.7679 C.ar      1 LIG        -0.1150 
      4 C12        12.5522    0.9255   23.5847 C.ar      1 LIG        -0.1150 
      5 C11        11.1830    0.6280   23.6854 C.ar      1 LIG        -0.1150 
      6 C15        11.4767   -1.2316   22.1493 C.ar      1 LIG        -0.1150 
      7 C10        10.6200   -0.4512   22.9620 C.ar      1 LIG        -0.1150 
      8 C7          9.1027   -0.7289   22.9853 C.3       1 LIG         0.1150 
      9 C9          8.8273   -2.2562   22.9717 C.3       1 LIG        -0.1800 
     10 C8          8.4161   -0.1394   24.2417 C.3       1 LIG        -0.1800 
     11 C6          8.4957   -0.0373   21.7389 C.2       1 LIG         0.5000 
     12 O           9.0557    0.9301   21.2154 O.2       1 LIG        -0.5000 
     13 N1          7.3307   -0.5201   21.2793 N.am      1 LIG        -0.3850 
     14 C5          6.6046    0.0629   20.2196 C.ar      1 LIG        -0.2070 
     15 C1          5.3746    0.7093   20.4641 C.ar      1 LIG         0.1770 
     16 C           4.8082    0.8229   21.8646 C.3       1 LIG        -0.0650 
     17 C4          7.0948    0.0183   18.8979 C.ar      1 LIG         0.4730 
     18 N           6.4452    0.5720   17.8536 N.ar      1 LIG        -0.6780 
     19 C3          5.2809    1.2066   18.0960 C.ar      1 LIG         0.4730 
     20 C2          4.7041    1.2986   19.3754 C.ar      1 LIG        -0.4470 
     21 HC13       14.4352    0.3826   22.6856 H         1 LIG         0.1150 
     22 HC12       12.9520    1.7668   24.1247 H         1 LIG         0.1150 
     23 HC11       10.5774    1.2649   24.3085 H         1 LIG         0.1150 
     24 HC15       11.0936   -2.0583   21.5733 H         1 LIG         0.1150 
     25 H9_1        7.7756   -2.4814   23.1549 H         1 LIG         0.0600 
     26 H9_2        9.0800   -2.7187   22.0176 H         1 LIG         0.0600 
     27 H9_3        9.4003   -2.7645   23.7483 H         1 LIG         0.0600 
     28 H8_1        7.3666   -0.4325   24.2959 H         1 LIG         0.0600 
     29 H8_2        8.8952   -0.4911   25.1560 H         1 LIG         0.0600 
     30 H8_3        8.4267    0.9507   24.2546 H         1 LIG         0.0600 
     31 HN1         6.8638   -1.2254   21.8302 H         1 LIG         0.3000 
     32 HXT1        3.7887    1.2057   21.8481 H         1 LIG         0.0600 
     33 HXT2        4.7978   -0.1465   22.3596 H         1 LIG         0.0600 
     34 HXT3        5.4201    1.5026   22.4580 H         1 LIG         0.0600 
     35 HC4         8.0329   -0.4680   18.6706 H         1 LIG         0.0120 
     36 HC3         4.8043    1.6681   17.2463 H         1 LIG         0.0120 
     37 HC2         3.7789    1.8369   19.5156 H         1 LIG         0.1550 
@<TRIPOS>BOND
     1    1    2 1    
     2    2    3 ar   
     3    2    6 ar   
     4    3    4 ar   
     5    3   21 1    
     6    4    5 ar   
     7    4   22 1    
     8    5    7 ar   
     9    5   23 1    
    10    6    7 ar   
    11    6   24 1    
    12    7    8 1    
    13    8    9 1    
    14    8   10 1    
    15    8   11 1    
    16    9   25 1    
    17    9   26 1    
    18    9   27 1    
    19   10   28 1    
    20   10   29 1    
    21   10   30 1    
    22   11   12 2    
    23   11   13 am   BACKBONE|DICT|INTERRES
    24   13   14 1    
    25   13   31 1    
    26   14   15 ar   
    27   14   17 ar   
    28   15   16 1    
    29   15   20 ar   
    30   16   32 1    
    31   16   33 1    
    32   16   34 1    
    33   17   18 ar   
    34   17   35 1    
    35   18   19 ar   
    36   19   20 ar   
    37   19   36 1    
    38   20   37 1    
@<TRIPOS>SUBSTRUCTURE
     1 LIG         1 GROUP             0 A     ****    0 ROOT    
