@<TRIPOS>MOLECULE
Mpro-x2908_ligand
30   31    1
SMALL
USER_CHARGES


@<TRIPOS>ATOM
      1 CL         13.8350   -1.9125   21.4535 Cl        1 LIG        -0.1800 
      2 C11        12.6450   -0.9940   22.2851 C.ar      1 LIG         0.1800 
      3 C10        13.0167    0.1173   23.0657 C.ar      1 LIG        -0.1150 
      4 C9         12.0300    0.8842   23.7144 C.ar      1 LIG        -0.1150 
      5 C8         10.6686    0.5747   23.5302 C.ar      1 LIG        -0.1150 
      6 C12        11.2901   -1.3303   22.1327 C.ar      1 LIG        -0.1150 
      7 C7         10.3038   -0.5128   22.7095 C.ar      1 LIG         0.1066 
      8 N2          8.9566   -0.7233   22.3612 N.am      1 LIG        -0.4727 
      9 C6          8.3757    0.0109   21.4028 C.2       1 LIG         0.7661 
     10 O           8.8729    1.0388   20.9378 O.2       1 LIG        -0.6163 
     11 N1          7.1941   -0.4791   21.0057 N.am      1 LIG        -0.4511 
     12 C5          6.4539    0.1101   19.9575 C.ar      1 LIG        -0.2070 
     13 C1          5.2594    0.8202   20.2107 C.ar      1 LIG         0.1770 
     14 C           4.6953    0.9468   21.6117 C.3       1 LIG        -0.0650 
     15 C4          6.9335    0.0512   18.6332 C.ar      1 LIG         0.4730 
     16 N           6.3209    0.6589   17.5985 N.ar      1 LIG        -0.6780 
     17 C3          5.1978    1.3563   17.8505 C.ar      1 LIG         0.4730 
     18 C2          4.6251    1.4636   19.1305 C.ar      1 LIG        -0.4470 
     19 HC10       14.0579    0.3786   23.1624 H         1 LIG         0.1150 
     20 HC9        12.3153    1.7355   24.3118 H         1 LIG         0.1150 
     21 HC8         9.9066    1.2013   23.9683 H         1 LIG         0.1150 
     22 HC12       11.0096   -2.1648   21.5087 H         1 LIG         0.1150 
     23 HN2         8.5132   -1.5769   22.6683 H         1 LIG         0.2912 
     24 HN1         6.7731   -1.2378   21.5217 H         1 LIG         0.2912 
     25 HXT1        3.6867    1.3610   21.5915 H         1 LIG         0.0600 
     26 HXT2        4.6507   -0.0267   22.1002 H         1 LIG         0.0600 
     27 HXT3        5.3234    1.6076   22.2105 H         1 LIG         0.0600 
     28 HC4         7.8499   -0.4710   18.4010 H         1 LIG         0.0120 
     29 HC3         4.7658    1.8693   17.0081 H         1 LIG         0.0120 
     30 HC2         3.7306    2.0507   19.2781 H         1 LIG         0.1550 
@<TRIPOS>BOND
     1    1    2 1    
     2    2    3 ar   
     3    2    6 ar   
     4    3    4 ar   
     5    3   19 1    
     6    4    5 ar   
     7    4   20 1    
     8    5    7 ar   
     9    5   21 1    
    10    6    7 ar   
    11    6   22 1    
    12    7    8 1    
    13    8    9 am   BACKBONE|DICT|INTERRES
    14    8   23 1    
    15    9   10 2    
    16    9   11 am   BACKBONE|DICT|INTERRES
    17   11   12 1    
    18   11   24 1    
    19   12   13 ar   
    20   12   15 ar   
    21   13   14 1    
    22   13   18 ar   
    23   14   25 1    
    24   14   26 1    
    25   14   27 1    
    26   15   16 ar   
    27   15   28 1    
    28   16   17 ar   
    29   17   18 ar   
    30   17   29 1    
    31   18   30 1    
@<TRIPOS>SUBSTRUCTURE
     1 LIG         1 GROUP             0 A     ****    0 ROOT    
