@<TRIPOS>MOLECULE
Mpro-x11616_ligand
47   50    1
SMALL
USER_CHARGES


@<TRIPOS>ATOM
      1 O1          6.2045    1.0666   16.7130 O.2       1 LIG        -0.5000 
      2 C14         5.6586    0.8540   17.7859 C.ar      1 LIG         0.5567 
      3 C13         5.9392   -0.3050   18.6288 C.ar      1 LIG        -0.1717 
      4 N2          4.7388    1.7151   18.2569 N.pl3     1 LIG        -0.3850 
      5 C15         4.0671    1.5983   19.4900 C.ar      1 LIG         0.0850 
      6 C20         4.3741    0.5218   20.3511 C.ar      1 LIG         0.0000 
      7 C19         3.7162    0.4505   21.6008 C.ar      1 LIG        -0.1150 
      8 C18         2.7486    1.4113   21.9545 C.ar      1 LIG        -0.1150 
      9 C17         2.4350    2.4618   21.0713 C.ar      1 LIG        -0.1150 
     10 C16         3.1019    2.5597   19.8378 C.ar      1 LIG        -0.1150 
     11 C12         5.3599   -0.4626   19.8368 C.ar      1 LIG        -0.0567 
     12 C11         5.5593   -1.7241   20.5409 C.2       1 LIG         0.5567 
     13 O           5.1476   -2.7967   20.0925 O.2       1 LIG        -0.5000 
     14 N1          6.1798   -1.6379   21.7430 N.am      1 LIG        -0.1400 
     15 C8          6.2274   -2.7654   22.6834 C.3       1 LIG        -0.0500 
     16 C7          7.6674   -3.2974   22.7753 C.3       1 LIG         0.0900 
     17 C9          7.0291   -0.5273   22.1988 C.3       1 LIG        -0.0500 
     18 C10         8.4919   -1.0041   22.2886 C.3       1 LIG         0.0900 
     19 N           8.5848   -2.2092   23.1125 N.pl3     1 LIG        -0.6300 
     20 C5          9.7847   -2.5075   23.7884 C.ar      1 LIG         0.2100 
     21 C4          9.7756   -3.3795   24.9031 C.ar      1 LIG        -0.1150 
     22 C3         10.9575   -3.6493   25.6168 C.ar      1 LIG        -0.1150 
     23 C2         12.1625   -3.0384   25.2327 C.ar      1 LIG        -0.1150 
     24 C6         11.0121   -1.9243   23.3946 C.ar      1 LIG        -0.1150 
     25 C1         12.1973   -2.1872   24.1115 C.ar      1 LIG         0.1500 
     26 C          13.5127   -1.5604   23.7029 C.3       1 LIG         0.4500 
     27 F          14.4263   -2.5181   23.5839 F         1 LIG        -0.2000 
     28 F1         13.8875   -0.7244   24.6638 F         1 LIG        -0.2000 
     29 F2         13.4377   -0.8933   22.5500 F         1 LIG        -0.2000 
     30 HC13        6.5985   -1.0713   18.2504 H         1 LIG         0.1150 
     31 HN2         4.5272    2.5316   17.6954 H         1 LIG         0.3000 
     32 HC19        3.9320   -0.3444   22.2955 H         1 LIG         0.1150 
     33 HC18        2.2432    1.3407   22.9065 H         1 LIG         0.1150 
     34 HC17        1.6912    3.1951   21.3431 H         1 LIG         0.1150 
     35 HC16        2.8727    3.3695   19.1593 H         1 LIG         0.1150 
     36 H8_1        5.5451   -3.5717   22.4130 H         1 LIG         0.0600 
     37 H8_2        5.8959   -2.4202   23.6639 H         1 LIG         0.0600 
     38 H7_1        7.9651   -3.7111   21.8131 H         1 LIG         0.0600 
     39 H7_2        7.7085   -4.1176   23.4897 H         1 LIG         0.0600 
     40 H9_1        6.6830   -0.1999   23.1805 H         1 LIG         0.0600 
     41 H9_2        6.9791    0.3517   21.5603 H         1 LIG         0.0600 
     42 H101        9.0962   -0.2011   22.7111 H         1 LIG         0.0600 
     43 H102        8.8843   -1.2178   21.2934 H         1 LIG         0.0600 
     44 HC4         8.8578   -3.8310   25.2483 H         1 LIG         0.1150 
     45 HC3        10.9325   -4.3107   26.4707 H         1 LIG         0.1150 
     46 HC2        13.0660   -3.2381   25.7905 H         1 LIG         0.1150 
     47 HC6        11.0570   -1.2724   22.5361 H         1 LIG         0.1150 
@<TRIPOS>BOND
     1    1    2 2    
     2    2    3 ar   
     3    2    4 ar   
     4    3   11 ar   
     5    3   30 1    
     6    4    5 ar   
     7    4   31 1    
     8    5    6 ar   
     9    5   10 ar   
    10    6    7 ar   
    11    6   11 ar   
    12    7    8 ar   
    13    7   32 1    
    14    8    9 ar   
    15    8   33 1    
    16    9   10 ar   
    17    9   34 1    
    18   10   35 1    
    19   11   12 1    
    20   12   13 2    
    21   12   14 am   BACKBONE|DICT|INTERRES
    22   14   15 1    
    23   14   17 1    
    24   15   16 1    
    25   15   36 1    
    26   15   37 1    
    27   16   19 1    
    28   16   38 1    
    29   16   39 1    
    30   17   18 1    
    31   17   40 1    
    32   17   41 1    
    33   18   19 1    
    34   18   42 1    
    35   18   43 1    
    36   19   20 1    
    37   20   21 ar   
    38   20   24 ar   
    39   21   22 ar   
    40   21   44 1    
    41   22   23 ar   
    42   22   45 1    
    43   23   25 ar   
    44   23   46 1    
    45   24   25 ar   
    46   24   47 1    
    47   25   26 1    
    48   26   27 1    
    49   26   28 1    
    50   26   29 1    
@<TRIPOS>SUBSTRUCTURE
     1 LIG         1 GROUP             0 A     ****    0 ROOT    
