@<TRIPOS>MOLECULE
Mpro-x0830_ligand
41   43    1
SMALL
USER_CHARGES


@<TRIPOS>ATOM
      1 N           6.7169   -2.4493   21.1211 N.am      1 LIG        -0.1400 
      2 C           6.2456   -4.6869   20.2036 C.3       1 LIG        -0.1800 
      3 O           5.9815   -2.6590   18.9823 O.2       1 LIG        -0.5000 
      4 C1          6.2680   -3.1625   20.0676 C.2       1 LIG         0.5000 
      5 C10        11.7865    2.1805   24.4774 C.ar      1 LIG        -0.1150 
      6 C11        10.6818    2.4197   25.3128 C.ar      1 LIG        -0.1150 
      7 C12         9.7866    1.3780   25.6070 C.ar      1 LIG        -0.1150 
      8 C13         9.9642    0.1113   25.0214 C.ar      1 LIG        -0.1150 
      9 C14        11.0494   -0.1337   24.1466 C.ar      1 LIG         0.0000 
     10 C15         7.9459   -3.2993   23.0456 C.3       1 LIG         0.1500 
     11 C16         6.5750   -2.8864   22.5084 C.3       1 LIG        -0.0500 
     12 C2          7.5776   -1.2741   20.9892 C.3       1 LIG        -0.0500 
     13 C3          8.9784   -1.6185   21.5532 C.3       1 LIG         0.1500 
     14 C4         10.1931   -2.4931   23.5862 C.3       1 LIG         0.2650 
     15 C5         11.2105   -1.3724   23.4758 C.ar      1 LIG        -0.1150 
     16 C6         12.3236   -1.5730   22.6354 C.ar      1 LIG        -0.1150 
     17 C7         13.2785   -0.5618   22.4631 C.ar      1 LIG        -0.1150 
     18 C8         13.1044    0.6827   23.0900 C.ar      1 LIG        -0.1150 
     19 C9         11.9850    0.9066   23.9117 C.ar      1 LIG         0.0000 
     20 N1          8.8948   -2.1667   22.9411 N.4       1 LIG        -0.1000 
     21 HXT1        5.9970   -5.1582   19.2546 H         1 LIG         0.0600 
     22 HXT2        7.2200   -5.0578   20.5191 H         1 LIG         0.0600 
     23 HXT3        5.5081   -5.0243   20.9296 H         1 LIG         0.0600 
     24 HC10       12.4674    2.9854   24.2484 H         1 LIG         0.1150 
     25 HC11       10.5178    3.4023   25.7258 H         1 LIG         0.1150 
     26 HC12        8.9477    1.5582   26.2628 H         1 LIG         0.1150 
     27 HC13        9.2355   -0.6525   25.2425 H         1 LIG         0.1150 
     28 H151        8.3333   -4.1525   22.4896 H         1 LIG         0.0600 
     29 H152        7.8536   -3.6237   24.0792 H         1 LIG         0.0600 
     30 H161        5.8534   -3.6935   22.6310 H         1 LIG         0.0600 
     31 H162        6.1852   -2.0597   23.1023 H         1 LIG         0.0600 
     32 H2_1        7.1407   -0.4415   21.5413 H         1 LIG         0.0600 
     33 H2_2        7.6682   -0.9482   19.9528 H         1 LIG         0.0600 
     34 H3_1        9.5899   -0.7176   21.5306 H         1 LIG         0.0600 
     35 H3_2        9.4714   -2.3524   20.9149 H         1 LIG         0.0600 
     36 H4_1       10.0358   -2.7167   24.6393 H         1 LIG         0.0600 
     37 H4_2       10.5974   -3.4036   23.1453 H         1 LIG         0.0600 
     38 HC6        12.4520   -2.5072   22.1198 H         1 LIG         0.1150 
     39 HC7        14.1257   -0.7326   21.8186 H         1 LIG         0.1150 
     40 HC8        13.8269    1.4688   22.9305 H         1 LIG         0.1150 
     41 HN1         8.4969   -1.4206   23.4930 H         1 LIG         0.2900 
@<TRIPOS>BOND
     1    1    4 am   BACKBONE|DICT|INTERRES
     2    1   11 1    
     3    1   12 1    
     4    2    4 1    
     5    2   21 1    
     6    2   22 1    
     7    2   23 1    
     8    3    4 2    
     9    5    6 ar   
    10    5   19 ar   
    11    5   24 1    
    12    6    7 ar   
    13    6   25 1    
    14    7    8 ar   
    15    7   26 1    
    16    8    9 ar   
    17    8   27 1    
    18    9   15 ar   
    19    9   19 ar   
    20   10   11 1    
    21   10   20 1    
    22   10   28 1    
    23   10   29 1    
    24   11   30 1    
    25   11   31 1    
    26   12   13 1    
    27   12   32 1    
    28   12   33 1    
    29   13   20 1    
    30   13   34 1    
    31   13   35 1    
    32   14   15 1    
    33   14   20 1    
    34   14   36 1    
    35   14   37 1    
    36   15   16 ar   
    37   16   17 ar   
    38   16   38 1    
    39   17   18 ar   
    40   17   39 1    
    41   18   19 ar   
    42   18   40 1    
    43   20   41 1    
@<TRIPOS>SUBSTRUCTURE
     1 LIG         1 GROUP             0 A     ****    0 ROOT    
