@<TRIPOS>MOLECULE
Mpro-x11548_ligand
33   35    1
SMALL
USER_CHARGES


@<TRIPOS>ATOM
      1 O           8.8096    0.7500   20.9664 O.2       1 LIG        -0.5000 
      2 C6          8.2289   -0.2684   21.3496 C.2       1 LIG         0.5000 
      3 C5          8.7615   -1.0933   22.5278 C.3       1 LIG        -0.0050 
      4 C4         10.2242   -0.7855   22.7708 C.ar      1 LIG        -0.1150 
      5 C3         10.6075    0.2577   23.6373 C.ar      1 LIG        -0.1150 
      6 C2         11.9666    0.6013   23.7628 C.ar      1 LIG        -0.1150 
      7 C1         12.9401   -0.0894   23.0153 C.ar      1 LIG        -0.1150 
      8 C15        11.2030   -1.5007   22.0612 C.ar      1 LIG        -0.1150 
      9 C          12.5539   -1.1367   22.1584 C.ar      1 LIG         0.1800 
     10 CL         13.7150   -1.9588   21.1935 Cl        1 LIG        -0.1800 
     11 N           7.1009   -0.7131   20.7842 N.am      1 LIG        -0.3850 
     12 C7          6.3973   -0.0091   19.7856 C.ar      1 LIG        -0.3011 
     13 C14         5.2309    0.7279   20.0877 C.ar      1 LIG         0.2099 
     14 C13         4.6998    0.7924   21.3953 C.ar      1 LIG        -0.0528 
     15 C12         3.5504    1.5678   21.6201 C.ar      1 LIG        -0.4544 
     16 C11         2.9794    2.2518   20.5320 C.ar      1 LIG         0.4608 
     17 N2          3.4713    2.1905   19.2779 N.ar      1 LIG        -0.6821 
     18 C10         4.5754    1.4452   19.0497 C.ar      1 LIG         0.3165 
     19 C9          5.1302    1.3444   17.7575 C.ar      1 LIG         0.2585 
     20 N1          6.2285    0.6224   17.4567 N.ar      1 LIG        -0.6210 
     21 C8          6.8528   -0.0319   18.4545 C.ar      1 LIG         0.4041 
     22 H5_1        8.6428   -2.1581   22.3208 H         1 LIG         0.0600 
     23 H5_2        8.1796   -0.8742   23.4224 H         1 LIG         0.0600 
     24 HC3         9.8577    0.8147   24.1779 H         1 LIG         0.1150 
     25 HC2        12.2578    1.4099   24.4117 H         1 LIG         0.1150 
     26 HC1        13.9775    0.1927   23.0880 H         1 LIG         0.1150 
     27 HC15       10.9080   -2.3067   21.4094 H         1 LIG         0.1150 
     28 HN          6.6435   -1.5178   21.1979 H         1 LIG         0.3000 
     29 HC13        5.1574    0.2644   22.2187 H         1 LIG         0.1566 
     30 HC12        3.1168    1.6388   22.6054 H         1 LIG         0.2013 
     31 HC11        2.0984    2.8575   20.6745 H         1 LIG         0.0452 
     32 HC9         4.6902    1.8859   16.9352 H         1 LIG         0.0845 
     33 HC8         7.7432   -0.5809   18.1854 H         1 LIG         0.0590 
@<TRIPOS>BOND
     1    1    2 2    
     2    2    3 1    
     3    2   11 am   BACKBONE|DICT|INTERRES
     4    3    4 1    
     5    3   22 1    
     6    3   23 1    
     7    4    5 ar   
     8    4    8 ar   
     9    5    6 ar   
    10    5   24 1    
    11    6    7 ar   
    12    6   25 1    
    13    7    9 ar   
    14    7   26 1    
    15    8    9 ar   
    16    8   27 1    
    17    9   10 1    
    18   11   12 1    
    19   11   28 1    
    20   12   13 ar   
    21   12   21 ar   
    22   13   14 ar   
    23   13   18 ar   
    24   14   15 ar   
    25   14   29 1    
    26   15   16 ar   
    27   15   30 1    
    28   16   17 ar   
    29   16   31 1    
    30   17   18 ar   
    31   18   19 ar   
    32   19   20 ar   
    33   19   32 1    
    34   20   21 ar   
    35   21   33 1    
@<TRIPOS>SUBSTRUCTURE
     1 LIG         1 GROUP             0 A     ****    0 ROOT    
