@<TRIPOS>MOLECULE
Mpro-x12740_ligand
40   41    1
SMALL
USER_CHARGES


@<TRIPOS>ATOM
      1 O           8.7503    0.6118   20.8943 O.2       1 LIG        -0.5000 
      2 C5          7.9840   -0.1596   21.4715 C.2       1 LIG         0.5000 
      3 C4          8.4045   -0.8367   22.7755 C.3       1 LIG         0.0025 
      4 N           9.8569   -0.7089   23.0541 N.4       1 LIG         0.0475 
      5 C3         10.1525   -0.8011   24.5059 C.3       1 LIG         0.1500 
      6 C2         11.6526   -0.6377   24.7846 C.3       1 LIG        -0.1200 
      7 C12        10.6677   -1.6609   22.2496 C.3       1 LIG         0.1500 
      8 C13        12.1715   -1.4995   22.5132 C.3       1 LIG        -0.1200 
      9 C1         12.4620   -1.6839   24.0048 C.3       1 LIG        -0.0600 
     10 C          13.9513   -1.5865   24.3189 C.3       1 LIG        -0.1800 
     11 N1          6.7444   -0.4312   21.0389 N.am      1 LIG        -0.3850 
     12 C6          6.1452    0.1978   19.9243 C.ar      1 LIG        -0.2070 
     13 C10         4.9735    0.9694   20.0828 C.ar      1 LIG         0.1770 
     14 C11         4.3121    1.1301   21.4371 C.3       1 LIG        -0.0650 
     15 C9          4.4465    1.6250   18.9528 C.ar      1 LIG        -0.4470 
     16 C8          5.0900    1.4529   17.7134 C.ar      1 LIG         0.4730 
     17 N2          6.1851    0.6839   17.5465 N.ar      1 LIG        -0.6780 
     18 C7          6.7031    0.0773   18.6334 C.ar      1 LIG         0.4730 
     19 H4_1        8.1114   -1.8882   22.7699 H         1 LIG         0.0600 
     20 H4_2        7.8347   -0.3599   23.5726 H         1 LIG         0.0600 
     21 HN         10.1264    0.2259   22.7697 H         1 LIG         0.2900 
     22 H3_1        9.8041   -1.7623   24.8880 H         1 LIG         0.0600 
     23 H3_2        9.6012   -0.0265   25.0407 H         1 LIG         0.0600 
     24 H2_1       11.8382   -0.7329   25.8523 H         1 LIG         0.0600 
     25 H2_2       11.9737    0.3689   24.5122 H         1 LIG         0.0600 
     26 H121       10.4650   -1.5030   21.1942 H         1 LIG         0.0600 
     27 H122       10.3602   -2.6799   22.4826 H         1 LIG         0.0600 
     28 H131       12.5061   -0.5113   22.1966 H         1 LIG         0.0600 
     29 H132       12.7304   -2.2243   21.9210 H         1 LIG         0.0600 
     30 HC1        12.1282   -2.6814   24.2914 H         1 LIG         0.0600 
     31 HXT1       14.5224   -2.3262   23.7576 H         1 LIG         0.0600 
     32 HXT2       14.3160   -0.5960   24.0591 H         1 LIG         0.0600 
     33 HXT3       14.1459   -1.7480   25.3796 H         1 LIG         0.0600 
     34 HN1         6.1395   -0.9664   21.6453 H         1 LIG         0.3000 
     35 H111        3.3750    1.6811   21.3557 H         1 LIG         0.0600 
     36 H112        4.0981    0.1563   21.8758 H         1 LIG         0.0600 
     37 H113        4.9702    1.6721   22.1159 H         1 LIG         0.0600 
     38 HC9         3.5752    2.2587   19.0284 H         1 LIG         0.1550 
     39 HC8         4.7308    1.9650   16.8355 H         1 LIG         0.0120 
     40 HC7         7.5944   -0.5103   18.4676 H         1 LIG         0.0120 
@<TRIPOS>BOND
     1    1    2 2    
     2    2    3 1    
     3    2   11 am   BACKBONE|DICT|INTERRES
     4    3    4 1    
     5    3   19 1    
     6    3   20 1    
     7    4    5 1    
     8    4    7 1    
     9    4   21 1    
    10    5    6 1    
    11    5   22 1    
    12    5   23 1    
    13    6    9 1    
    14    6   24 1    
    15    6   25 1    
    16    7    8 1    
    17    7   26 1    
    18    7   27 1    
    19    8    9 1    
    20    8   28 1    
    21    8   29 1    
    22    9   10 1    
    23    9   30 1    
    24   10   31 1    
    25   10   32 1    
    26   10   33 1    
    27   11   12 1    
    28   11   34 1    
    29   12   13 ar   
    30   12   18 ar   
    31   13   14 1    
    32   13   15 ar   
    33   14   35 1    
    34   14   36 1    
    35   14   37 1    
    36   15   16 ar   
    37   15   38 1    
    38   16   17 ar   
    39   16   39 1    
    40   17   18 ar   
    41   18   40 1    
@<TRIPOS>SUBSTRUCTURE
     1 LIG         1 GROUP             0 A     ****    0 ROOT    
