@<TRIPOS>MOLECULE
Mpro-x11757_ligand
63   67    1
SMALL
USER_CHARGES


@<TRIPOS>ATOM
      1 O1          9.3396    1.0235   21.2087 O.2       1 LIG        -0.5000 
      2 C6          9.0024    0.0155   21.8353 C.2       1 LIG         0.5000 
      3 C5          8.0016   -0.9633   21.1926 C.3       1 LIG         0.0025 
      4 N2          7.2241   -0.3391   20.1395 N.pl3     1 LIG         0.0636 
      5 N1          7.6565   -0.3870   18.8495 N.2       1 LIG         0.0816 
      6 N           6.8324    0.2884   18.1105 N.2       1 LIG        -0.4222 
      7 C24         6.0508    0.3741   20.2568 C.ar      1 LIG        -0.0957 
      8 C4          5.8352    0.7815   18.9257 C.ar      1 LIG         0.2502 
      9 C3          4.7191    1.5937   18.6530 C.ar      1 LIG        -0.1150 
     10 C2          3.8341    1.9490   19.6889 C.ar      1 LIG        -0.1150 
     11 C25         5.1870    0.7252   21.3050 C.ar      1 LIG        -0.1150 
     12 C1          4.0506    1.5204   21.0178 C.ar      1 LIG         0.0850 
     13 O           3.1276    1.9103   21.9618 O.3       1 LIG        -0.2850 
     14 C           3.4480    1.6926   23.3281 C.3       1 LIG         0.1100 
     15 N3          9.4883   -0.2653   23.0678 N.am      1 LIG        -0.0317 
     16 C7         10.5873    0.5156   23.6513 C.3       1 LIG         0.0650 
     17 C8         11.8527   -0.3152   23.7289 C.ar      1 LIG         0.3700 
     18 N4         12.3717   -0.7232   22.5493 N.ar      1 LIG        -0.6780 
     19 C12        13.4019   -1.5914   22.5808 C.ar      1 LIG         0.4730 
     20 C11        13.9573   -2.0788   23.7773 C.ar      1 LIG        -0.4470 
     21 C10        13.4411   -1.6225   25.0016 C.ar      1 LIG         0.2270 
     22 C9         12.3610   -0.7233   24.9770 C.ar      1 LIG        -0.4470 
     23 C13         9.0185   -1.3712   23.8256 C.ar      1 LIG        -0.0383 
     24 C18         9.5648   -2.6591   23.6373 C.ar      1 LIG        -0.1150 
     25 C17         9.0968   -3.7425   24.4067 C.ar      1 LIG        -0.1150 
     26 C16         8.0747   -3.5494   25.3600 C.ar      1 LIG        -0.1150 
     27 C15         7.5385   -2.2576   25.5491 C.ar      1 LIG        -0.1150 
     28 C14         8.0118   -1.1749   24.7898 C.ar      1 LIG        -0.1150 
     29 C19         7.5592   -4.7239   26.1791 C.3       1 LIG         0.0550 
     30 C23         6.0425   -4.9369   25.9873 C.3       1 LIG        -0.1200 
     31 C22         5.5295   -6.1030   26.8471 C.3       1 LIG         0.1700 
     32 N5          5.8737   -5.8980   28.2696 N.4       1 LIG        -0.2000 
     33 C21         7.3240   -5.7295   28.4973 C.3       1 LIG         0.1700 
     34 C20         7.8839   -4.5589   27.6760 C.3       1 LIG        -0.1200 
     35 H5_1        7.2959   -1.3602   21.9230 H         1 LIG         0.0600 
     36 H5_2        8.5595   -1.8068   20.7909 H         1 LIG         0.0600 
     37 HC3         4.5519    1.9467   17.6481 H         1 LIG         0.1150 
     38 HC2         2.9771    2.5629   19.4570 H         1 LIG         0.1150 
     39 HC25        5.4100    0.3759   22.3016 H         1 LIG         0.1150 
     40 HXT1        2.6577    2.1089   23.9523 H         1 LIG         0.0300 
     41 HXT2        3.5327    0.6334   23.5691 H         1 LIG         0.0300 
     42 HXT3        4.3778    2.1951   23.5967 H         1 LIG         0.0300 
     43 H7_1       10.2957    0.8389   24.6518 H         1 LIG         0.0600 
     44 H7_2       10.8116    1.4303   23.1021 H         1 LIG         0.0600 
     45 HC12       13.7868   -1.9131   21.6240 H         1 LIG         0.0120 
     46 HC11       14.7660   -2.7856   23.7525 H         1 LIG         0.1550 
     47 HC10       13.8508   -1.9782   25.9346 H         1 LIG         0.0650 
     48 HC9        11.9006   -0.3938   25.8933 H         1 LIG         0.1550 
     49 HC18       10.3456   -2.8179   22.9073 H         1 LIG         0.1150 
     50 HC17        9.5233   -4.7239   24.2608 H         1 LIG         0.1150 
     51 HC15        6.7663   -2.0847   26.2839 H         1 LIG         0.1150 
     52 HC14        7.5971   -0.1949   24.9550 H         1 LIG         0.1150 
     53 HC19        8.0666   -5.6243   25.8278 H         1 LIG         0.0600 
     54 H231        5.8229   -5.1292   24.9361 H         1 LIG         0.0600 
     55 H232        5.4936   -4.0340   26.2566 H         1 LIG         0.0600 
     56 H221        5.9579   -7.0443   26.5087 H         1 LIG         0.0600 
     57 H222        4.4476   -6.1966   26.7513 H         1 LIG         0.0600 
     58 H5_1        5.5493   -6.6915   28.8037 H         1 LIG         0.3100 
     59 H5_2        5.4026   -5.0680   28.6014 H         1 LIG         0.3100 
     60 H211        7.8503   -6.6474   28.2485 H         1 LIG         0.0600 
     61 H212        7.4759   -5.5567   29.5594 H         1 LIG         0.0600 
     62 H201        7.4618   -3.6266   28.0509 H         1 LIG         0.0600 
     63 H202        8.9625   -4.4878   27.8237 H         1 LIG         0.0600 
@<TRIPOS>BOND
     1    1    2 2    
     2    2    3 1    
     3    2   15 am   BACKBONE|DICT|INTERRES
     4    3    4 1    
     5    3   35 1    
     6    3   36 1    
     7    4    5 ar   
     8    4    7 ar   
     9    5    6 ar   
    10    6    8 ar   
    11    7    8 ar   
    12    7   11 ar   
    13    8    9 ar   
    14    9   10 ar   
    15    9   37 1    
    16   10   12 ar   
    17   10   38 1    
    18   11   12 ar   
    19   11   39 1    
    20   12   13 1    
    21   13   14 1    
    22   14   40 1    
    23   14   41 1    
    24   14   42 1    
    25   15   16 1    
    26   15   23 1    
    27   16   17 1    
    28   16   43 1    
    29   16   44 1    
    30   17   18 ar   
    31   17   22 ar   
    32   18   19 ar   
    33   19   20 ar   
    34   19   45 1    
    35   20   21 ar   
    36   20   46 1    
    37   21   22 ar   
    38   21   47 1    
    39   22   48 1    
    40   23   24 ar   
    41   23   28 ar   
    42   24   25 ar   
    43   24   49 1    
    44   25   26 ar   
    45   25   50 1    
    46   26   27 ar   
    47   26   29 1    
    48   27   28 ar   
    49   27   51 1    
    50   28   52 1    
    51   29   30 1    
    52   29   34 1    
    53   29   53 1    
    54   30   31 1    
    55   30   54 1    
    56   30   55 1    
    57   31   32 1    
    58   31   56 1    
    59   31   57 1    
    60   32   33 1    
    61   32   58 1    
    62   32   59 1    
    63   33   34 1    
    64   33   60 1    
    65   33   61 1    
    66   34   62 1    
    67   34   63 1    
@<TRIPOS>SUBSTRUCTURE
     1 LIG         1 GROUP             0 A     ****    0 ROOT    
