@<TRIPOS>MOLECULE
Mpro-x11743_ligand
37   38    1
SMALL
USER_CHARGES


@<TRIPOS>ATOM
      1 O2         11.6046    5.2043   24.6708 O.2       1 LIG        -0.4680 
      2 S          10.9189    3.9337   24.3830 S.o2      1 LIG         1.1044 
      3 O1          9.9519    3.4203   25.3632 O.2       1 LIG        -0.4680 
      4 N3         10.0337    4.2067   22.9445 N.pl3     1 LIG        -0.7678 
      5 N2         11.9278    2.8053   23.7906 N.2       1 LIG        -0.5726 
      6 C12        11.6569    1.5359   23.4394 C.ar      1 LIG        -0.5424 
      7 C11        12.7169    0.6949   23.0291 C.ar      1 LIG        -0.1150 
      8 C10        12.4774   -0.6120   22.5589 C.ar      1 LIG         0.1800 
      9 CL         13.7718   -1.5845   21.9705 Cl        1 LIG        -0.1800 
     10 C9         11.1676   -1.1113   22.4972 C.ar      1 LIG        -0.1150 
     11 C13        10.3485    0.9988   23.3999 C.ar      1 LIG        -0.1150 
     12 C8         10.0960   -0.2954   22.8989 C.ar      1 LIG        -0.1150 
     13 C7          8.6657   -0.7620   22.6859 C.3       1 LIG        -0.0050 
     14 C6          8.0294   -0.0292   21.4969 C.2       1 LIG         0.5000 
     15 O           8.6041    0.9160   20.9508 O.2       1 LIG        -0.5000 
     16 N1          6.8208   -0.4521   21.0992 N.am      1 LIG        -0.3850 
     17 C5          6.1213    0.1641   20.0365 C.ar      1 LIG        -0.2070 
     18 C1          4.9167    0.8611   20.2687 C.ar      1 LIG         0.1770 
     19 C           4.2977    0.9349   21.6514 C.3       1 LIG        -0.0650 
     20 C4          6.6513    0.1481   18.7273 C.ar      1 LIG         0.4730 
     21 N           6.0839    0.7956   17.6892 N.ar      1 LIG        -0.6780 
     22 C3          4.9557    1.4929   17.9286 C.ar      1 LIG         0.4730 
     23 C2          4.3289    1.5457   19.1873 C.ar      1 LIG        -0.4470 
     24 H3_1        9.0480    3.9472   23.0301 H         1 LIG         0.3572 
     25 H3_2       10.1787    5.1379   22.5582 H         1 LIG         0.3572 
     26 HC11       13.7302    1.0698   23.0314 H         1 LIG         0.1150 
     27 HC9        10.9862   -2.0950   22.0902 H         1 LIG         0.1150 
     28 HC13        9.4993    1.6057   23.6746 H         1 LIG         0.1150 
     29 H7_1        8.0808   -0.5797   23.5860 H         1 LIG         0.0600 
     30 H7_2        8.6446   -1.8368   22.5008 H         1 LIG         0.0600 
     31 HN1         6.3267   -1.1241   21.6682 H         1 LIG         0.3000 
     32 HXT1        3.3105    1.3953   21.6214 H         1 LIG         0.0600 
     33 HXT2        4.1927   -0.0601   22.0822 H         1 LIG         0.0600 
     34 HXT3        4.9299    1.5288   22.3115 H         1 LIG         0.0600 
     35 HC4         7.5722   -0.3741   18.5116 H         1 LIG         0.0120 
     36 HC3         4.5431    2.0321   17.0908 H         1 LIG         0.0120 
     37 HC2         3.4269    2.1224   19.3195 H         1 LIG         0.1550 
@<TRIPOS>BOND
     1    1    2 2    
     2    2    3 2    
     3    2    4 1    
     4    2    5 1    
     5    4   24 1    
     6    4   25 1    
     7    5    6 1    
     8    6    7 ar   
     9    6   11 ar   
    10    7    8 ar   
    11    7   26 1    
    12    8    9 1    
    13    8   10 ar   
    14   10   12 ar   
    15   10   27 1    
    16   11   12 ar   
    17   11   28 1    
    18   12   13 1    
    19   13   14 1    
    20   13   29 1    
    21   13   30 1    
    22   14   15 2    
    23   14   16 am   BACKBONE|DICT|INTERRES
    24   16   17 1    
    25   16   31 1    
    26   17   18 ar   
    27   17   20 ar   
    28   18   19 1    
    29   18   23 ar   
    30   19   32 1    
    31   19   33 1    
    32   19   34 1    
    33   20   21 ar   
    34   20   35 1    
    35   21   22 ar   
    36   22   23 ar   
    37   22   36 1    
    38   23   37 1    
@<TRIPOS>SUBSTRUCTURE
     1 LIG         1 GROUP             0 A     ****    0 ROOT    
