@<TRIPOS>MOLECULE
Mpro-x12582_ligand
42   45    1
SMALL
USER_CHARGES


@<TRIPOS>ATOM
      1 O1          5.4203   -2.6051   20.6536 O.2       1 LIG        -0.5000 
      2 C10         5.7161   -1.4208   20.8223 C.2       1 LIG         0.6150 
      3 C11         5.3078   -0.4250   19.7796 C.ar      1 LIG        -0.6271 
      4 C19         4.3437    0.5928   20.0095 C.ar      1 LIG         0.6486 
      5 C18         3.6431    0.7359   21.2327 C.ar      1 LIG        -0.4445 
      6 C17         2.6952    1.7653   21.3955 C.ar      1 LIG        -0.0460 
      7 C16         2.4359    2.6606   20.3419 C.ar      1 LIG        -0.1533 
      8 C15         3.1220    2.5300   19.1226 C.ar      1 LIG        -0.1818 
      9 C14         4.0716    1.5018   18.9566 C.ar      1 LIG        -0.2505 
     10 C13         4.7599    1.3542   17.7382 C.ar      1 LIG         0.3967 
     11 N2          5.6653    0.3822   17.5142 N.ar      1 LIG        -0.6841 
     12 C12         5.9200   -0.4869   18.5101 C.ar      1 LIG         0.4845 
     13 N1          6.4081   -0.9619   21.8941 N.am      1 LIG        -0.1400 
     14 C7          6.8968   -1.8601   22.9372 C.3       1 LIG        -0.0500 
     15 C6          8.4213   -1.9815   22.7839 C.3       1 LIG        -0.0500 
     16 C8          6.9378    0.4029   22.0230 C.3       1 LIG        -0.0500 
     17 C9          8.4664    0.4216   22.1504 C.2       1 LIG         0.5000 
     18 O           9.0618    1.4380   21.7847 O.2       1 LIG        -0.5000 
     19 N           9.1040   -0.6847   22.6177 N.am      1 LIG        -0.0317 
     20 C4         10.5052   -0.6491   22.8387 C.ar      1 LIG        -0.0383 
     21 C5         11.3362   -1.5611   22.1611 C.ar      1 LIG        -0.1150 
     22 C          12.7314   -1.4639   22.2735 C.ar      1 LIG         0.1800 
     23 CL         13.7401   -2.4882   21.3275 Cl        1 LIG        -0.1800 
     24 C3         11.0789    0.3122   23.7028 C.ar      1 LIG        -0.1150 
     25 C2         12.4746    0.3765   23.8512 C.ar      1 LIG        -0.1150 
     26 C1         13.2974   -0.5039   23.1282 C.ar      1 LIG        -0.1150 
     27 HC18        3.8116    0.0616   22.0582 H         1 LIG         0.2009 
     28 HC17        2.1663    1.8652   22.3308 H         1 LIG         0.1382 
     29 HC16        1.7099    3.4516   20.4697 H         1 LIG         0.1414 
     30 HC15        2.9178    3.2204   18.3166 H         1 LIG         0.1598 
     31 HC13        4.5788    2.0273   16.9142 H         1 LIG         0.0566 
     32 HC12        6.6566   -1.2449   18.2907 H         1 LIG         0.0456 
     33 H7_1        6.4304   -2.8461   22.9140 H         1 LIG         0.0600 
     34 H7_2        6.6516   -1.4351   23.9117 H         1 LIG         0.0600 
     35 H6_1        8.6366   -2.5958   21.9090 H         1 LIG         0.0600 
     36 H6_2        8.8355   -2.5094   23.6443 H         1 LIG         0.0600 
     37 H8_1        6.5152    0.8536   22.9218 H         1 LIG         0.0600 
     38 H8_2        6.6772    1.0750   21.2075 H         1 LIG         0.0600 
     39 HC5        10.9040   -2.3047   21.5153 H         1 LIG         0.1150 
     40 HC3        10.4542    1.0113   24.2382 H         1 LIG         0.1150 
     41 HC2        12.9106    1.1187   24.4989 H         1 LIG         0.1150 
     42 HC1        14.3640   -0.4349   23.2169 H         1 LIG         0.1150 
@<TRIPOS>BOND
     1    1    2 2    
     2    2    3 1    
     3    2   13 am   BACKBONE|DICT|INTERRES
     4    3    4 ar   
     5    3   12 ar   
     6    4    5 ar   
     7    4    9 ar   
     8    5    6 ar   
     9    5   27 1    
    10    6    7 ar   
    11    6   28 1    
    12    7    8 ar   
    13    7   29 1    
    14    8    9 ar   
    15    8   30 1    
    16    9   10 ar   
    17   10   11 ar   
    18   10   31 1    
    19   11   12 ar   
    20   12   32 1    
    21   13   14 1    
    22   13   16 1    
    23   14   15 1    
    24   14   33 1    
    25   14   34 1    
    26   15   19 1    
    27   15   35 1    
    28   15   36 1    
    29   16   17 1    
    30   16   37 1    
    31   16   38 1    
    32   17   18 2    
    33   17   19 am   BACKBONE|DICT|INTERRES
    34   19   20 1    
    35   20   21 ar   
    36   20   24 ar   
    37   21   22 ar   
    38   21   39 1    
    39   22   23 1    
    40   22   26 ar   
    41   24   25 ar   
    42   24   40 1    
    43   25   26 ar   
    44   25   41 1    
    45   26   42 1    
@<TRIPOS>SUBSTRUCTURE
     1 LIG         1 GROUP             0 A     ****    0 ROOT    
