@<TRIPOS>MOLECULE
Mpro-x10789_ligand
40   42    1
SMALL
USER_CHARGES


@<TRIPOS>ATOM
      1 N           6.0946    0.6555   17.5365 N.ar      1 LIG        -0.6780 
      2 N2         12.1735    4.6167   21.8349 N.am      1 LIG        -0.5450 
      3 C1          5.0633    0.9792   20.1504 C.ar      1 LIG         0.1770 
      4 C11        12.9886    0.5152   22.5807 C.ar      1 LIG        -0.1150 
      5 O1         12.3849    2.7549   23.3276 O.3       1 LIG        -0.2850 
      6 C8         10.2597   -0.1836   22.7036 C.ar      1 LIG        -0.1150 
      7 C2          4.4443    1.5978   19.0462 C.ar      1 LIG        -0.4470 
      8 C16        10.6860    1.0912   23.1311 C.ar      1 LIG        -0.1150 
      9 C6          8.1221    0.1769   21.4313 C.2       1 LIG         0.5000 
     10 C5          6.2381    0.2274   19.9225 C.ar      1 LIG        -0.2070 
     11 C4          6.7053    0.0902   18.5980 C.ar      1 LIG         0.4730 
     12 C13        12.9808    3.4653   22.2490 C.3       1 LIG         0.2225 
     13 C10        12.5701   -0.7743   22.1951 C.ar      1 LIG         0.1800 
     14 C9         11.2082   -1.1228   22.2511 C.ar      1 LIG        -0.1150 
     15 C12        12.0385    1.4626   23.0275 C.ar      1 LIG         0.0850 
     16 C14        14.0509    4.4470   22.7087 C.3       1 LIG        -0.1560 
     17 C           4.4969    1.1651   21.5445 C.3       1 LIG        -0.0650 
     18 N1          6.9625   -0.3394   20.9957 N.am      1 LIG        -0.3850 
     19 O           8.6421    1.1645   20.9068 O.2       1 LIG        -0.5000 
     20 O2         13.1685    6.7434   22.1049 O.2       1 LIG        -0.5065 
     21 C7          8.7750   -0.5045   22.6428 C.3       1 LIG        -0.0050 
     22 C3          4.9973    1.4054   17.7663 C.ar      1 LIG         0.4730 
     23 C15        13.1251    5.5383   22.1924 C.2       1 LIG         0.6650 
     24 CL         13.7090   -1.9115   21.5814 Cl        1 LIG        -0.1800 
     25 HN2        11.2616    4.7064   21.4051 H         1 LIG         0.3000 
     26 HC11       14.0309    0.7874   22.5009 H         1 LIG         0.1150 
     27 HC2         3.5672    2.2164   19.1686 H         1 LIG         0.1550 
     28 HC16        9.9597    1.8213   23.4574 H         1 LIG         0.1150 
     29 HC4         7.6037   -0.4703   18.3839 H         1 LIG         0.0120 
     30 HC13       13.3143    2.8539   21.4111 H         1 LIG         0.1000 
     31 HC9        10.8916   -2.0971   21.9096 H         1 LIG         0.1150 
     32 H141       14.9877    4.3366   22.1693 H         1 LIG         0.0600 
     33 H142       14.1966    4.4598   23.7855 H         1 LIG         0.0600 
     34 HXT1        4.4280    0.2100   22.0649 H         1 LIG         0.0600 
     35 HXT2        5.1371    1.8306   22.1241 H         1 LIG         0.0600 
     36 HXT3        3.4975    1.5991   21.5088 H         1 LIG         0.0600 
     37 HN1         6.5200   -1.0720   21.5315 H         1 LIG         0.3000 
     38 H7_1        8.2894   -0.1584   23.5559 H         1 LIG         0.0600 
     39 H7_2        8.6272   -1.5838   22.5868 H         1 LIG         0.0600 
     40 HC3         4.5537    1.8759   16.9034 H         1 LIG         0.0120 
@<TRIPOS>BOND
     1    1   11 ar   
     2    1   22 ar   
     3    2   12 1    
     4    2   23 am   BACKBONE|DICT|INTERRES
     5    2   25 1    
     6    3    7 ar   
     7    3   10 ar   
     8    3   17 1    
     9    4   13 ar   
    10    4   15 ar   
    11    4   26 1    
    12    5   12 1    
    13    5   15 1    
    14    6    8 ar   
    15    6   14 ar   
    16    6   21 1    
    17    7   22 ar   
    18    7   27 1    
    19    8   15 ar   
    20    8   28 1    
    21    9   18 am   BACKBONE|DICT|INTERRES
    22    9   19 2    
    23    9   21 1    
    24   10   11 ar   
    25   10   18 1    
    26   11   29 1    
    27   12   16 1    
    28   12   30 1    
    29   13   14 ar   
    30   13   24 1    
    31   14   31 1    
    32   16   23 1    
    33   16   32 1    
    34   16   33 1    
    35   17   34 1    
    36   17   35 1    
    37   17   36 1    
    38   18   37 1    
    39   20   23 2    
    40   21   38 1    
    41   21   39 1    
    42   22   40 1    
@<TRIPOS>SUBSTRUCTURE
     1 LIG         1 GROUP             0 A     ****    0 ROOT    
