@<TRIPOS>MOLECULE
Mpro-x12698_ligand
43   46    1
SMALL
USER_CHARGES


@<TRIPOS>ATOM
      1 O1          9.2377    1.2029   21.2958 O.2       1 LIG        -0.5000 
      2 C7          8.6797    0.2038   21.7550 C.2       1 LIG         0.5000 
      3 C6          9.2078   -0.5019   23.0148 C.3       1 LIG         0.0550 
      4 C5          8.5891    0.1118   24.2843 C.3       1 LIG        -0.1200 
      5 C4          9.3276    1.3860   24.7002 C.3       1 LIG         0.1400 
      6 O          10.6948    1.1092   24.9662 O.3       1 LIG        -0.2850 
      7 C16        10.7236   -0.4248   23.0508 C.ar      1 LIG        -0.1150 
      8 C3         11.3725    0.3946   24.0042 C.ar      1 LIG         0.0850 
      9 C2         12.7723    0.4821   23.9858 C.ar      1 LIG        -0.1150 
     10 C1         13.5281   -0.2022   23.0201 C.ar      1 LIG        -0.1150 
     11 C17        11.4861   -1.1644   22.1229 C.ar      1 LIG        -0.1150 
     12 C          12.8865   -1.0404   22.0928 C.ar      1 LIG         0.1800 
     13 CL         13.8156   -1.9215   20.9405 Cl        1 LIG        -0.1800 
     14 N           7.5877   -0.3466   21.2090 N.am      1 LIG        -0.3850 
     15 C8          6.8436    0.2336   20.1641 C.ar      1 LIG        -0.2070 
     16 C15         5.6720    0.9793   20.4269 C.ar      1 LIG         0.1770 
     17 C14         5.2099    1.2426   21.8559 C.3       1 LIG         0.2850 
     18 N2          4.1381    2.2573   21.9390 N.4       1 LIG        -0.2000 
     19 C13         3.0825    2.0773   20.9271 C.3       1 LIG         0.1700 
     20 C12         3.6737    2.2883   19.5347 C.3       1 LIG         0.0430 
     21 C11         4.9300    1.4658   19.3262 C.ar      1 LIG        -0.4550 
     22 C10         5.3986    1.2003   18.0275 C.ar      1 LIG         0.4730 
     23 N1          6.5185    0.4969   17.7817 N.ar      1 LIG        -0.6780 
     24 C9          7.2244    0.0232   18.8260 C.ar      1 LIG         0.4730 
     25 HC6         8.9301   -1.5555   22.9617 H         1 LIG         0.0600 
     26 H5_1        8.6573   -0.5937   25.1097 H         1 LIG         0.0600 
     27 H5_2        7.5262    0.3091   24.1448 H         1 LIG         0.0600 
     28 H4_1        8.8749    1.8068   25.5978 H         1 LIG         0.0300 
     29 H4_2        9.2616    2.1471   23.9255 H         1 LIG         0.0300 
     30 HC2        13.2571    1.1094   24.7064 H         1 LIG         0.1150 
     31 HC1        14.5981   -0.0958   23.0011 H         1 LIG         0.1150 
     32 HC17       10.9852   -1.8203   21.4301 H         1 LIG         0.1150 
     33 HN          7.1746   -1.1436   21.6788 H         1 LIG         0.3000 
     34 H141        6.0473    1.5807   22.4662 H         1 LIG         0.0600 
     35 H142        4.8602    0.3038   22.2793 H         1 LIG         0.0600 
     36 H2_1        4.5561    3.1702   21.8000 H         1 LIG         0.3100 
     37 H2_2        3.7252    2.2314   22.8642 H         1 LIG         0.3100 
     38 H131        2.2706    2.7805   21.1120 H         1 LIG         0.0600 
     39 H132        2.6654    1.0754   21.0102 H         1 LIG         0.0600 
     40 H121        3.9141    3.3386   19.3976 H         1 LIG         0.0600 
     41 H122        2.9394    2.0415   18.7735 H         1 LIG         0.0600 
     42 HC10        4.8822    1.5830   17.1627 H         1 LIG         0.0120 
     43 HC9         8.1129   -0.5423   18.5856 H         1 LIG         0.0120 
@<TRIPOS>BOND
     1    1    2 2    
     2    2    3 1    
     3    2   14 am   BACKBONE|DICT|INTERRES
     4    3    4 1    
     5    3    7 1    
     6    3   25 1    
     7    4    5 1    
     8    4   26 1    
     9    4   27 1    
    10    5    6 1    
    11    5   28 1    
    12    5   29 1    
    13    6    8 1    
    14    7    8 ar   
    15    7   11 ar   
    16    8    9 ar   
    17    9   10 ar   
    18    9   30 1    
    19   10   12 ar   
    20   10   31 1    
    21   11   12 ar   
    22   11   32 1    
    23   12   13 1    
    24   14   15 1    
    25   14   33 1    
    26   15   16 ar   
    27   15   24 ar   
    28   16   17 1    
    29   16   21 ar   
    30   17   18 1    
    31   17   34 1    
    32   17   35 1    
    33   18   19 1    
    34   18   36 1    
    35   18   37 1    
    36   19   20 1    
    37   19   38 1    
    38   19   39 1    
    39   20   21 1    
    40   20   40 1    
    41   20   41 1    
    42   21   22 ar   
    43   22   23 ar   
    44   22   42 1    
    45   23   24 ar   
    46   24   43 1    
@<TRIPOS>SUBSTRUCTURE
     1 LIG         1 GROUP             0 A     ****    0 ROOT    
