@<TRIPOS>MOLECULE
Mpro-x10535_ligand
30   32    1
SMALL
USER_CHARGES


@<TRIPOS>ATOM
      1 C9          6.2231    0.4506   20.2422 C.ar      1 LIG        -0.4070 
      2 C12         5.3458    1.1899   17.7357 C.ar      1 LIG         0.4730 
      3 N           8.8685   -0.6418   22.2500 N.am      1 LIG        -0.3300 
      4 N2          6.3749    0.3234   17.8236 N.ar      1 LIG        -0.6780 
      5 C11         4.6857    1.7206   18.8569 C.ar      1 LIG        -0.4470 
      6 C1         12.9551   -0.5210   23.3585 C.ar      1 LIG        -0.1150 
      7 O1          8.7290    1.5148   21.4474 O.2       1 LIG        -0.5080 
      8 C          12.5370   -1.3216   22.2807 C.ar      1 LIG         0.1800 
      9 C8          8.2317    0.4347   21.7721 C.2       1 LIG         0.6305 
     10 C2         12.0076    0.2168   24.0895 C.ar      1 LIG        -0.1150 
     11 C6          8.0523   -1.7090   22.3243 C.2       1 LIG         0.7530 
     12 N1          6.8380   -1.3373   21.8956 N.am      1 LIG        -0.5362 
     13 O           8.3532   -2.8374   22.7113 O.2       1 LIG        -0.5080 
     14 C5         11.1742   -1.4053   21.9505 C.ar      1 LIG        -0.1150 
     15 C7          6.7623    0.0832   21.6168 C.3       1 LIG         0.1775 
     16 C4         10.2274   -0.6358   22.6526 C.ar      1 LIG         0.0850 
     17 C13         6.8006   -0.0383   19.0507 C.ar      1 LIG         0.4730 
     18 C10         5.1341    1.3407   20.1336 C.ar      1 LIG         0.2270 
     19 C3         10.6462    0.1681   23.7341 C.ar      1 LIG        -0.1150 
     20 CL         13.6894   -2.1694   21.3291 Cl        1 LIG        -0.1800 
     21 HC12        5.0525    1.4910   16.7444 H         1 LIG         0.0120 
     22 HC11        3.8719    2.4211   18.7370 H         1 LIG         0.1550 
     23 HC1        13.9997   -0.4664   23.6193 H         1 LIG         0.1150 
     24 HC2        12.3354    0.8366   24.9072 H         1 LIG         0.1150 
     25 HN1         6.0284   -1.9402   21.8891 H         1 LIG         0.2912 
     26 HC5        10.8596   -2.0400   21.1413 H         1 LIG         0.1150 
     27 HC7         6.1856    0.5751   22.4016 H         1 LIG         0.0600 
     28 HC13        7.6433   -0.7130   19.0800 H         1 LIG         0.0120 
     29 HC10        4.6571    1.7410   21.0157 H         1 LIG         0.0650 
     30 HC3         9.9218    0.7516   24.2824 H         1 LIG         0.1150 
@<TRIPOS>BOND
     1    1   15 1    
     2    1   17 ar   
     3    1   18 ar   
     4    2    4 ar   
     5    2    5 ar   
     6    2   21 1    
     7    3    9 am   BACKBONE|DICT|INTERRES
     8    3   11 am   BACKBONE|DICT|INTERRES
     9    3   16 1    
    10    4   17 ar   
    11    5   18 ar   
    12    5   22 1    
    13    6    8 ar   
    14    6   10 ar   
    15    6   23 1    
    16    7    9 2    
    17    8   14 ar   
    18    8   20 1    
    19    9   15 1    
    20   10   19 ar   
    21   10   24 1    
    22   11   12 am   BACKBONE|DICT|INTERRES
    23   11   13 2    
    24   12   15 1    
    25   12   25 1    
    26   14   16 ar   
    27   14   26 1    
    28   15   27 1    
    29   16   19 ar   
    30   17   28 1    
    31   18   29 1    
    32   19   30 1    
@<TRIPOS>SUBSTRUCTURE
     1 LIG         1 GROUP             0 A     ****    0 ROOT    
