@<TRIPOS>MOLECULE
Mpro-x12202_ligand
37   39    1
SMALL
USER_CHARGES


@<TRIPOS>ATOM
      1 CL         13.7852   -1.9267   21.0426 Cl        1 LIG        -0.1800 
      2 C14        12.7352   -1.0535   22.0903 C.ar      1 LIG         0.1800 
      3 C13        13.2447   -0.0499   22.9353 C.ar      1 LIG        -0.1150 
      4 C12        12.3834    0.6419   23.8067 C.ar      1 LIG        -0.1150 
      5 C11        11.0087    0.3481   23.8139 C.ar      1 LIG        -0.1150 
      6 C15        11.3619   -1.3501   22.1049 C.ar      1 LIG        -0.1150 
      7 C10        10.4908   -0.6305   22.9435 C.ar      1 LIG        -0.1150 
      8 C9          8.9947   -0.8722   22.8675 C.3       1 LIG        -0.0050 
      9 C8          8.3606   -0.1419   21.6663 C.2       1 LIG         0.5000 
     10 O           9.0550    0.6313   21.0012 O.2       1 LIG        -0.5000 
     11 N2          7.0523   -0.3610   21.3770 N.am      1 LIG        -0.1550 
     12 C4          6.1026   -0.8494   22.3803 C.3       1 LIG        -0.0500 
     13 C5          5.2161    0.3221   22.8231 C.3       1 LIG        -0.1200 
     14 C6          4.4694    0.9628   21.6395 C.3       1 LIG        -0.0050 
     15 C7          5.2113    0.8753   20.3089 C.ar      1 LIG         0.1770 
     16 C           4.6605    1.4415   19.1374 C.ar      1 LIG        -0.0920 
     17 N           3.4871    2.1946   19.1642 N.pl3     1 LIG        -0.9200 
     18 C3          6.4511    0.1968   20.2104 C.ar      1 LIG        -0.2070 
     19 C2          7.0403    0.0633   18.9327 C.ar      1 LIG         0.4730 
     20 N1          6.4889    0.5606   17.8093 N.ar      1 LIG        -0.6780 
     21 C1          5.3331    1.2425   17.9175 C.ar      1 LIG         0.4730 
     22 HC13       14.2950    0.1877   22.9161 H         1 LIG         0.1150 
     23 HC12       12.7689    1.4138   24.4520 H         1 LIG         0.1150 
     24 HC11       10.3474    0.8933   24.4681 H         1 LIG         0.1150 
     25 HC15       10.9670   -2.1169   21.4574 H         1 LIG         0.1150 
     26 H9_1        8.5387   -0.5250   23.7939 H         1 LIG         0.0600 
     27 H9_2        8.8096   -1.9442   22.7869 H         1 LIG         0.0600 
     28 H4_1        6.5506   -1.3285   23.2485 H         1 LIG         0.0600 
     29 H4_2        5.4874   -1.6186   21.9137 H         1 LIG         0.0600 
     30 H5_1        5.8564    1.0767   23.2828 H         1 LIG         0.0600 
     31 H5_2        4.5110    0.0145   23.5954 H         1 LIG         0.0600 
     32 H6_1        4.2186    1.9971   21.8677 H         1 LIG         0.0600 
     33 H6_2        3.5208    0.4468   21.5026 H         1 LIG         0.0600 
     34 H__1        3.2999    2.7884   18.3654 H         1 LIG         0.3600 
     35 H__2        3.2236    2.6191   20.0421 H         1 LIG         0.3600 
     36 HC2         7.9734   -0.4644   18.7991 H         1 LIG         0.0120 
     37 HC1         4.9530    1.6646   17.0010 H         1 LIG         0.0120 
@<TRIPOS>BOND
     1    1    2 1    
     2    2    3 ar   
     3    2    6 ar   
     4    3    4 ar   
     5    3   22 1    
     6    4    5 ar   
     7    4   23 1    
     8    5    7 ar   
     9    5   24 1    
    10    6    7 ar   
    11    6   25 1    
    12    7    8 1    
    13    8    9 1    
    14    8   26 1    
    15    8   27 1    
    16    9   10 2    
    17    9   11 am   BACKBONE|DICT|INTERRES
    18   11   12 1    
    19   11   18 1    
    20   12   13 1    
    21   12   28 1    
    22   12   29 1    
    23   13   14 1    
    24   13   30 1    
    25   13   31 1    
    26   14   15 1    
    27   14   32 1    
    28   14   33 1    
    29   15   16 ar   
    30   15   18 ar   
    31   16   17 1    
    32   16   21 ar   
    33   17   34 1    
    34   17   35 1    
    35   18   19 ar   
    36   19   20 ar   
    37   19   36 1    
    38   20   21 ar   
    39   21   37 1    
@<TRIPOS>SUBSTRUCTURE
     1 LIG         1 GROUP             0 A     ****    0 ROOT    
