@<TRIPOS>MOLECULE
Mpro-x10820_ligand
46   49    1
SMALL
USER_CHARGES


@<TRIPOS>ATOM
      1 S          13.7015   -0.7680   21.8039 S.3       1 LIG         0.0328 
      2 N           8.6440   -4.9910   26.2294 N.pl3     1 LIG        -0.7800 
      3 N3          7.4175   -0.4687   18.9105 N.2       1 LIG         0.0816 
      4 N2          6.9296   -0.3562   20.1777 N.pl3     1 LIG         0.0636 
      5 C1          8.7152   -3.8458   25.4271 C.ar      1 LIG         0.2000 
      6 C11        11.9988   -0.6828   22.1010 C.2       1 LIG        -0.3255 
      7 C18         4.9645    0.9456   21.2264 C.ar      1 LIG        -0.1150 
      8 C8         11.6702    0.2955   23.0090 C.2       1 LIG        -0.0677 
      9 C2          7.8878   -2.7120   25.6147 C.ar      1 LIG        -0.1150 
     10 C6          9.6717   -3.8294   24.3986 C.ar      1 LIG        -0.1150 
     11 C16         3.7914    2.2341   19.5163 C.ar      1 LIG        -0.1150 
     12 C5          9.8068   -2.7075   23.5686 C.ar      1 LIG        -0.1150 
     13 C4          9.0141   -1.5563   23.7776 C.ar      1 LIG        -0.0383 
     14 C10        13.9376    0.7036   22.6913 C.2       1 LIG        -0.3255 
     15 C13         7.6321   -0.9836   21.2856 C.3       1 LIG         0.0025 
     16 C17         3.9333    1.8320   20.8612 C.ar      1 LIG        -0.1150 
     17 C9         12.7939    1.1097   23.3209 C.2       1 LIG        -0.0738 
     18 C12         8.6826   -0.0339   21.8807 C.2       1 LIG         0.5000 
     19 C19         5.8239    0.4662   20.2248 C.ar      1 LIG        -0.0957 
     20 C14         5.6942    0.8449   18.8721 C.ar      1 LIG         0.2502 
     21 C           7.4452   -5.2627   27.0012 C.3       1 LIG         0.0200 
     22 N1          9.2725   -0.3558   23.0581 N.am      1 LIG        -0.0317 
     23 O           8.9804    0.9941   21.2625 O.2       1 LIG        -0.5000 
     24 C7         10.3096    0.5248   23.6080 C.3       1 LIG         0.0650 
     25 C3          8.0447   -1.5693   24.8027 C.ar      1 LIG        -0.1150 
     26 C15         4.6678    1.7467   18.5254 C.ar      1 LIG        -0.1150 
     27 N4          6.6772    0.2410   18.1155 N.2       1 LIG        -0.4222 
     28 HN          9.2853   -5.7553   26.0617 H         1 LIG         0.3800 
     29 HC11       11.3603   -1.3853   21.5937 H         1 LIG         0.2618 
     30 HC18        5.0996    0.6491   22.2554 H         1 LIG         0.1150 
     31 HC2         7.1477   -2.6907   26.4005 H         1 LIG         0.1150 
     32 HC6        10.3156   -4.6832   24.2482 H         1 LIG         0.1150 
     33 HC16        3.0118    2.9274   19.2376 H         1 LIG         0.1150 
     34 HC5        10.5539   -2.7619   22.8000 H         1 LIG         0.1150 
     35 HC10       14.9030    1.1776   22.6922 H         1 LIG         0.2618 
     36 H131        8.1212   -1.8954   20.9474 H         1 LIG         0.0600 
     37 H132        6.8963   -1.2647   22.0401 H         1 LIG         0.0600 
     38 HC17        3.2595    2.2182   21.6114 H         1 LIG         0.1150 
     39 HC9        12.7130    1.9706   23.9637 H         1 LIG         0.1211 
     40 HXT1        7.5340   -6.2289   27.4964 H         1 LIG         0.0600 
     41 HXT2        7.2939   -4.5068   27.7700 H         1 LIG         0.0600 
     42 HXT3        6.5671   -5.2889   26.3544 H         1 LIG         0.0600 
     43 H7_1       10.0243    1.5720   23.5003 H         1 LIG         0.0600 
     44 H7_2       10.3639    0.3711   24.6875 H         1 LIG         0.0600 
     45 HC3         7.4372   -0.6949   24.9871 H         1 LIG         0.1150 
     46 HC15        4.5667    2.0756   17.5028 H         1 LIG         0.1150 
@<TRIPOS>BOND
     1    1    6 1    
     2    1   14 1    
     3    2    5 1    
     4    2   21 1    
     5    2   28 1    
     6    3    4 ar   
     7    3   27 ar   
     8    4   15 1    
     9    4   19 ar   
    10    5    9 ar   
    11    5   10 ar   
    12    6    8 2    
    13    6   29 1    
    14    7   16 ar   
    15    7   19 ar   
    16    7   30 1    
    17    8   17 1    
    18    8   24 1    
    19    9   25 ar   
    20    9   31 1    
    21   10   12 ar   
    22   10   32 1    
    23   11   16 ar   
    24   11   26 ar   
    25   11   33 1    
    26   12   13 ar   
    27   12   34 1    
    28   13   22 1    
    29   13   25 ar   
    30   14   17 2    
    31   14   35 1    
    32   15   18 1    
    33   15   36 1    
    34   15   37 1    
    35   16   38 1    
    36   17   39 1    
    37   18   22 am   BACKBONE|DICT|INTERRES
    38   18   23 2    
    39   19   20 ar   
    40   20   26 ar   
    41   20   27 ar   
    42   21   40 1    
    43   21   41 1    
    44   21   42 1    
    45   22   24 1    
    46   24   43 1    
    47   24   44 1    
    48   25   45 1    
    49   26   46 1    
@<TRIPOS>SUBSTRUCTURE
     1 LIG         1 GROUP             0 A     ****    0 ROOT    
