@<TRIPOS>MOLECULE
Mpro-x11366_ligand
44   47    1
SMALL
USER_CHARGES


@<TRIPOS>ATOM
      1 O1          6.1898    1.0998   16.8897 O.2       1 LIG        -0.5000 
      2 C13         5.7416    0.8647   18.0033 C.ar      1 LIG         0.5567 
      3 C12         6.1398   -0.2886   18.8080 C.ar      1 LIG        -0.1717 
      4 N2          4.8404    1.6909   18.5652 N.pl3     1 LIG        -0.3850 
      5 C14         4.2825    1.5399   19.8547 C.ar      1 LIG         0.0850 
      6 C19         4.6871    0.4552   20.6633 C.ar      1 LIG         0.0000 
      7 C18         4.1256    0.3230   21.9540 C.ar      1 LIG        -0.1150 
      8 C17         3.1598    1.2428   22.4073 C.ar      1 LIG        -0.1150 
      9 C16         2.7606    2.3142   21.5866 C.ar      1 LIG        -0.1150 
     10 C15         3.3292    2.4696   20.3091 C.ar      1 LIG        -0.1150 
     11 C11         5.6689   -0.4766   20.0581 C.ar      1 LIG        -0.0567 
     12 C10         6.0300   -1.6927   20.7764 C.2       1 LIG         0.5567 
     13 O           5.5622   -2.7913   20.4732 O.2       1 LIG        -0.5000 
     14 N1          6.8868   -1.5262   21.8172 N.am      1 LIG        -0.1400 
     15 C7          7.2381   -2.6288   22.7266 C.3       1 LIG        -0.0500 
     16 C6          8.7396   -2.9447   22.6062 C.3       1 LIG         0.0900 
     17 C8          7.6479   -0.3048   22.1405 C.3       1 LIG        -0.0500 
     18 C9          9.1588   -0.5862   22.0283 C.3       1 LIG         0.0900 
     19 N           9.5257   -1.7376   22.8480 N.pl3     1 LIG        -0.6300 
     20 C5         10.8686   -1.8911   23.2466 C.ar      1 LIG         0.2100 
     21 C          11.1841   -2.5975   24.4343 C.ar      1 LIG         0.2200 
     22 F          10.2034   -3.1356   25.1972 F         1 LIG        -0.2200 
     23 C4         11.9268   -1.3250   22.4951 C.ar      1 LIG        -0.1150 
     24 C3         13.2628   -1.4684   22.9141 C.ar      1 LIG        -0.1150 
     25 C2         13.5609   -2.1728   24.0938 C.ar      1 LIG        -0.1150 
     26 C1         12.5202   -2.7302   24.8564 C.ar      1 LIG        -0.1150 
     27 HC12        6.8179   -1.0066   18.3691 H         1 LIG         0.1150 
     28 HN2         4.5595    2.5098   18.0358 H         1 LIG         0.3000 
     29 HC18        4.4144   -0.4868   22.6067 H         1 LIG         0.1150 
     30 HC17        2.7257    1.1238   23.3884 H         1 LIG         0.1150 
     31 HC16        2.0237    3.0215   21.9396 H         1 LIG         0.1150 
     32 HC15        3.0339    3.2957   19.6799 H         1 LIG         0.1150 
     33 H7_1        6.6585   -3.5337   22.5447 H         1 LIG         0.0600 
     34 H7_2        7.0025   -2.3301   23.7488 H         1 LIG         0.0600 
     35 H6_1        8.9586   -3.3008   21.6002 H         1 LIG         0.0600 
     36 H6_2        9.0076   -3.7515   23.2869 H         1 LIG         0.0600 
     37 H8_1        7.4008    0.0031   23.1574 H         1 LIG         0.0600 
     38 H8_2        7.4087    0.5497   21.5099 H         1 LIG         0.0600 
     39 H9_1        9.7203    0.2934   22.3450 H         1 LIG         0.0600 
     40 H9_2        9.4228   -0.7881   20.9896 H         1 LIG         0.0600 
     41 HC4        11.7321   -0.7836   21.5811 H         1 LIG         0.1150 
     42 HC3        14.0553   -1.0362   22.3229 H         1 LIG         0.1150 
     43 HC2        14.5843   -2.2913   24.4144 H         1 LIG         0.1150 
     44 HC1        12.7495   -3.2710   25.7625 H         1 LIG         0.1150 
@<TRIPOS>BOND
     1    1    2 2    
     2    2    3 ar   
     3    2    4 ar   
     4    3   11 ar   
     5    3   27 1    
     6    4    5 ar   
     7    4   28 1    
     8    5    6 ar   
     9    5   10 ar   
    10    6    7 ar   
    11    6   11 ar   
    12    7    8 ar   
    13    7   29 1    
    14    8    9 ar   
    15    8   30 1    
    16    9   10 ar   
    17    9   31 1    
    18   10   32 1    
    19   11   12 1    
    20   12   13 2    
    21   12   14 am   BACKBONE|DICT|INTERRES
    22   14   15 1    
    23   14   17 1    
    24   15   16 1    
    25   15   33 1    
    26   15   34 1    
    27   16   19 1    
    28   16   35 1    
    29   16   36 1    
    30   17   18 1    
    31   17   37 1    
    32   17   38 1    
    33   18   19 1    
    34   18   39 1    
    35   18   40 1    
    36   19   20 1    
    37   20   21 ar   
    38   20   23 ar   
    39   21   22 1    
    40   21   26 ar   
    41   23   24 ar   
    42   23   41 1    
    43   24   25 ar   
    44   24   42 1    
    45   25   26 ar   
    46   25   43 1    
    47   26   44 1    
@<TRIPOS>SUBSTRUCTURE
     1 LIG         1 GROUP             0 A     ****    0 ROOT    
