@<TRIPOS>MOLECULE
Mpro-x11812_ligand
43   46    1
SMALL
USER_CHARGES


@<TRIPOS>ATOM
      1 O           5.6378   -2.8022   20.6408 O.2       1 LIG        -0.5000 
      2 C           6.2425   -1.7423   20.7871 C.2       1 LIG         0.6150 
      3 C11         5.9230   -0.6132   19.8485 C.ar      1 LIG        -0.6271 
      4 C19         5.0125    0.4245   20.1808 C.ar      1 LIG         0.6486 
      5 C18         4.4061    0.5428   21.4534 C.ar      1 LIG        -0.4445 
      6 C17         3.4618    1.5563   21.7003 C.ar      1 LIG        -0.0460 
      7 C16         3.1167    2.4666   20.6859 C.ar      1 LIG        -0.1533 
      8 C15         3.7299    2.3787   19.4229 C.ar      1 LIG        -0.1818 
      9 C14         4.6739    1.3657   19.1753 C.ar      1 LIG        -0.2505 
     10 C13         5.2826    1.2573   17.9125 C.ar      1 LIG         0.3967 
     11 N2          6.1735    0.2991   17.6076 N.ar      1 LIG        -0.6841 
     12 C12         6.4698   -0.6157   18.5506 C.ar      1 LIG         0.4845 
     13 N           7.1319   -1.5257   21.7838 N.am      1 LIG        -0.1400 
     14 C4          8.0376   -0.3738   21.8728 C.3       1 LIG        -0.0500 
     15 C3          9.4969   -0.8594   21.9146 C.3       1 LIG         0.0900 
     16 N1          9.6930   -1.8294   22.9886 N.pl3     1 LIG        -0.6300 
     17 C2          8.7659   -2.9583   22.9814 C.3       1 LIG         0.0900 
     18 C1          7.3077   -2.4692   22.9002 C.3       1 LIG        -0.0500 
     19 C5         10.9915   -2.0279   23.5053 C.ar      1 LIG         0.2100 
     20 C10        12.1421   -1.5954   22.8017 C.ar      1 LIG        -0.1150 
     21 C9         13.4266   -1.7590   23.3507 C.ar      1 LIG        -0.1150 
     22 C8         13.5877   -2.3613   24.6113 C.ar      1 LIG        -0.1150 
     23 C7         12.4570   -2.8097   25.3171 C.ar      1 LIG        -0.1150 
     24 C6         11.1702   -2.6434   24.7677 C.ar      1 LIG        -0.1150 
     25 HC18        4.6462   -0.1403   22.2528 H         1 LIG         0.2009 
     26 HC17        2.9954    1.6299   22.6724 H         1 LIG         0.1382 
     27 HC16        2.3819    3.2335   20.8775 H         1 LIG         0.1414 
     28 HC15        3.4628    3.0836   18.6483 H         1 LIG         0.1598 
     29 HC13        5.0563    1.9582   17.1237 H         1 LIG         0.0566 
     30 HC12        7.1614   -1.3760   18.2356 H         1 LIG         0.0456 
     31 H4_1        7.8117    0.1867   22.7780 H         1 LIG         0.0600 
     32 H4_2        7.9286    0.3297   21.0480 H         1 LIG         0.0600 
     33 H3_1       10.1567   -0.0046   22.0546 H         1 LIG         0.0600 
     34 H3_2        9.7596   -1.3227   20.9648 H         1 LIG         0.0600 
     35 H2_1        8.8858   -3.5856   23.8629 H         1 LIG         0.0600 
     36 H2_2        8.9887   -3.5831   22.1171 H         1 LIG         0.0600 
     37 H1_1        6.6417   -3.3305   22.8355 H         1 LIG         0.0600 
     38 H1_2        7.0401   -1.9577   23.8256 H         1 LIG         0.0600 
     39 HC10       12.0625   -1.1386   21.8273 H         1 LIG         0.1150 
     40 HC9        14.2850   -1.4195   22.7949 H         1 LIG         0.1150 
     41 HC8        14.5738   -2.4827   25.0346 H         1 LIG         0.1150 
     42 HC7        12.5756   -3.2791   26.2820 H         1 LIG         0.1150 
     43 HC6        10.3188   -2.9708   25.3449 H         1 LIG         0.1150 
@<TRIPOS>BOND
     1    1    2 2    
     2    2    3 1    
     3    2   13 am   BACKBONE|DICT|INTERRES
     4    3    4 ar   
     5    3   12 ar   
     6    4    5 ar   
     7    4    9 ar   
     8    5    6 ar   
     9    5   25 1    
    10    6    7 ar   
    11    6   26 1    
    12    7    8 ar   
    13    7   27 1    
    14    8    9 ar   
    15    8   28 1    
    16    9   10 ar   
    17   10   11 ar   
    18   10   29 1    
    19   11   12 ar   
    20   12   30 1    
    21   13   14 1    
    22   13   18 1    
    23   14   15 1    
    24   14   31 1    
    25   14   32 1    
    26   15   16 1    
    27   15   33 1    
    28   15   34 1    
    29   16   17 1    
    30   16   19 1    
    31   17   18 1    
    32   17   35 1    
    33   17   36 1    
    34   18   37 1    
    35   18   38 1    
    36   19   20 ar   
    37   19   24 ar   
    38   20   21 ar   
    39   20   39 1    
    40   21   22 ar   
    41   21   40 1    
    42   22   23 ar   
    43   22   41 1    
    44   23   24 ar   
    45   23   42 1    
    46   24   43 1    
@<TRIPOS>SUBSTRUCTURE
     1 LIG         1 GROUP             0 A     ****    0 ROOT    
