@<TRIPOS>MOLECULE
Mpro-x10876_ligand
49   52    1
SMALL
USER_CHARGES


@<TRIPOS>ATOM
      1 O           8.8934    1.5484   21.0915 O.2       1 LIG        -0.5000 
      2 C13         8.6874    0.4997   21.7080 C.2       1 LIG         0.5000 
      3 N1          9.1109    0.3294   22.9884 N.am      1 LIG        -0.0317 
      4 C8          9.6803    1.4796   23.7156 C.3       1 LIG         0.0650 
      5 C9         11.1293    1.6638   23.3846 C.2       1 LIG        -0.0677 
      6 C12        11.7061    2.8517   22.8435 C.2       1 LIG        -0.0738 
      7 C11        13.0384    2.7119   22.5547 C.2       1 LIG        -0.3255 
      8 S          13.6149    1.1160   22.9365 S.3       1 LIG         0.0328 
      9 C10        12.0522    0.6640   23.5370 C.2       1 LIG        -0.3255 
     10 C5          9.0712   -0.9299   23.6569 C.ar      1 LIG        -0.0383 
     11 C4          8.4666   -1.0422   24.9266 C.ar      1 LIG        -0.1150 
     12 C3          8.4281   -2.2795   25.5929 C.ar      1 LIG        -0.1150 
     13 C6          9.6746   -2.0699   23.0830 C.ar      1 LIG        -0.1150 
     14 C7          9.6303   -3.3052   23.7489 C.ar      1 LIG        -0.1150 
     15 C2          8.9971   -3.4350   25.0087 C.ar      1 LIG         0.2100 
     16 N           8.9453   -4.6770   25.6729 N.pl3     1 LIG        -0.6300 
     17 C1          7.9461   -4.9117   26.7056 C.3       1 LIG         0.0300 
     18 C           9.6829   -5.8014   25.1286 C.3       1 LIG         0.0300 
     19 C14         7.9238   -0.6354   20.9927 C.3       1 LIG         0.0025 
     20 N2          7.0700   -0.1127   19.9427 N.pl3     1 LIG         0.0636 
     21 C16         5.8845    0.5816   20.0669 C.ar      1 LIG        -0.0957 
     22 C17         5.0439    0.9642   21.1228 C.ar      1 LIG        -0.1150 
     23 C18         3.9272    1.7719   20.8375 C.ar      1 LIG        -0.1150 
     24 C19         3.6798    2.1880   19.5125 C.ar      1 LIG        -0.1150 
     25 C20         4.5269    1.7797   18.4629 C.ar      1 LIG        -0.1150 
     26 C15         5.6351    0.9527   18.7304 C.ar      1 LIG         0.2502 
     27 N4          6.6048    0.4249   17.9039 N.2       1 LIG        -0.4222 
     28 N3          7.4571   -0.2166   18.6424 N.2       1 LIG         0.0816 
     29 H8_1        9.5780    1.3486   24.7926 H         1 LIG         0.0600 
     30 H8_2        9.1177    2.3890   23.4994 H         1 LIG         0.0600 
     31 HC12       11.1278    3.7439   22.6545 H         1 LIG         0.1211 
     32 HC11       13.7088    3.4316   22.1105 H         1 LIG         0.2618 
     33 HC10       11.8829   -0.3247   23.9289 H         1 LIG         0.2618 
     34 HC4         8.0134   -0.1836   25.3984 H         1 LIG         0.1150 
     35 HC3         7.9541   -2.3199   26.5622 H         1 LIG         0.1150 
     36 HC6        10.1789   -2.0073   22.1293 H         1 LIG         0.1150 
     37 HC7        10.0936   -4.1478   23.2652 H         1 LIG         0.1150 
     38 H1_1        7.8967   -5.9657   26.9800 H         1 LIG         0.0600 
     39 H1_2        8.1914   -4.3493   27.6034 H         1 LIG         0.0600 
     40 H1_3        6.9562   -4.6084   26.3626 H         1 LIG         0.0600 
     41 HXT1        9.6341   -6.6540   25.7998 H         1 LIG         0.0600 
     42 HXT2        9.2834   -6.1073   24.1609 H         1 LIG         0.0600 
     43 HXT3       10.7327   -5.5332   25.0137 H         1 LIG         0.0600 
     44 H141        7.2921   -1.1876   21.6891 H         1 LIG         0.0600 
     45 H142        8.6374   -1.3360   20.5593 H         1 LIG         0.0600 
     46 HC17        5.2570    0.6523   22.1321 H         1 LIG         0.1150 
     47 HC18        3.2677    2.0881   21.6307 H         1 LIG         0.1150 
     48 HC19        2.8368    2.8240   19.2947 H         1 LIG         0.1150 
     49 HC20        4.3404    2.1115   17.4542 H         1 LIG         0.1150 
@<TRIPOS>BOND
     1    1    2 2    
     2    2    3 am   BACKBONE|DICT|INTERRES
     3    2   19 1    
     4    3    4 1    
     5    3   10 1    
     6    4    5 1    
     7    4   29 1    
     8    4   30 1    
     9    5    6 1    
    10    5    9 2    
    11    6    7 2    
    12    6   31 1    
    13    7    8 1    
    14    7   32 1    
    15    8    9 1    
    16    9   33 1    
    17   10   11 ar   
    18   10   13 ar   
    19   11   12 ar   
    20   11   34 1    
    21   12   15 ar   
    22   12   35 1    
    23   13   14 ar   
    24   13   36 1    
    25   14   15 ar   
    26   14   37 1    
    27   15   16 1    
    28   16   17 1    
    29   16   18 1    
    30   17   38 1    
    31   17   39 1    
    32   17   40 1    
    33   18   41 1    
    34   18   42 1    
    35   18   43 1    
    36   19   20 1    
    37   19   44 1    
    38   19   45 1    
    39   20   21 ar   
    40   20   28 ar   
    41   21   22 ar   
    42   21   26 ar   
    43   22   23 ar   
    44   22   46 1    
    45   23   24 ar   
    46   23   47 1    
    47   24   25 ar   
    48   24   48 1    
    49   25   26 ar   
    50   25   49 1    
    51   26   27 ar   
    52   27   28 ar   
@<TRIPOS>SUBSTRUCTURE
     1 LIG         1 GROUP             0 A     ****    0 ROOT    
