@<TRIPOS>MOLECULE
Mpro-x3303_ligand
44   47    1
SMALL
USER_CHARGES


@<TRIPOS>ATOM
      1 O1          6.3580    0.9430   16.8635 O.2       1 LIG        -0.5000 
      2 C13         5.9271    0.7641   17.9930 C.ar      1 LIG         0.5567 
      3 C12         6.3922   -0.2925   18.8904 C.ar      1 LIG        -0.1717 
      4 N2          4.9756    1.5785   18.4791 N.pl3     1 LIG        -0.3850 
      5 C14         4.4179    1.4972   19.7691 C.ar      1 LIG         0.0850 
      6 C19         3.4290    2.4251   20.1413 C.ar      1 LIG        -0.1150 
      7 C18         2.8647    2.3553   21.4263 C.ar      1 LIG        -0.1150 
      8 C17         3.2906    1.3602   22.3266 C.ar      1 LIG        -0.1150 
      9 C16         4.2875    0.4375   21.9516 C.ar      1 LIG        -0.1150 
     10 C15         4.8632    0.4947   20.6609 C.ar      1 LIG         0.0000 
     11 C11         5.9201   -0.4163   20.1521 C.ar      1 LIG        -0.0567 
     12 C           6.3109   -1.5647   20.9719 C.2       1 LIG         0.5567 
     13 O           5.5157   -2.4629   21.2402 O.2       1 LIG        -0.5000 
     14 N           7.6029   -1.6163   21.3985 N.am      1 LIG        -0.1400 
     15 C4          8.1214   -2.7711   22.1563 C.3       1 LIG        -0.0500 
     16 C3          8.6670   -2.3247   23.5240 C.3       1 LIG         0.0900 
     17 N1          9.6761   -1.2868   23.3431 N.pl3     1 LIG        -0.6300 
     18 C2          9.2717   -0.1586   22.5092 C.3       1 LIG         0.0900 
     19 C1          8.6642   -0.6211   21.1696 C.3       1 LIG        -0.0500 
     20 C5         11.0349   -1.6386   23.4732 C.ar      1 LIG         0.2100 
     21 C10        11.4785   -2.2921   24.6440 C.ar      1 LIG        -0.1150 
     22 C9         12.8362   -2.6189   24.8221 C.ar      1 LIG        -0.1150 
     23 C8         13.7673   -2.3123   23.8175 C.ar      1 LIG        -0.1150 
     24 C7         13.3397   -1.6838   22.6351 C.ar      1 LIG        -0.1150 
     25 C6         11.9830   -1.3454   22.4675 C.ar      1 LIG        -0.1150 
     26 HC12        7.1170   -0.9981   18.5121 H         1 LIG         0.1150 
     27 HN2         4.6497    2.3308   17.8837 H         1 LIG         0.3000 
     28 HC19        3.1066    3.1889   19.4480 H         1 LIG         0.1150 
     29 HC18        2.1061    3.0636   21.7223 H         1 LIG         0.1150 
     30 HC17        2.8528    1.3052   23.3125 H         1 LIG         0.1150 
     31 HC16        4.5954   -0.3109   22.6672 H         1 LIG         0.1150 
     32 H4_1        8.9249   -3.2234   21.5783 H         1 LIG         0.0600 
     33 H4_2        7.3862   -3.5604   22.3096 H         1 LIG         0.0600 
     34 H3_1        9.0699   -3.1874   24.0548 H         1 LIG         0.0600 
     35 H3_2        7.8593   -1.9270   24.1393 H         1 LIG         0.0600 
     36 H2_1       10.0994    0.5296   22.3409 H         1 LIG         0.0600 
     37 H2_2        8.5210    0.3991   23.0693 H         1 LIG         0.0600 
     38 H1_1        8.3369    0.2606   20.6211 H         1 LIG         0.0600 
     39 H1_2        9.4345   -1.0944   20.5639 H         1 LIG         0.0600 
     40 HC10       10.7744   -2.5306   25.4223 H         1 LIG         0.1150 
     41 HC9        13.1706   -3.1179   25.7184 H         1 LIG         0.1150 
     42 HC8        14.8021   -2.5808   23.9507 H         1 LIG         0.1150 
     43 HC7        14.0486   -1.4763   21.8493 H         1 LIG         0.1150 
     44 HC6        11.6670   -0.8818   21.5498 H         1 LIG         0.1150 
@<TRIPOS>BOND
     1    1    2 2    
     2    2    3 ar   
     3    2    4 ar   
     4    3   11 ar   
     5    3   26 1    
     6    4    5 ar   
     7    4   27 1    
     8    5    6 ar   
     9    5   10 ar   
    10    6    7 ar   
    11    6   28 1    
    12    7    8 ar   
    13    7   29 1    
    14    8    9 ar   
    15    8   30 1    
    16    9   10 ar   
    17    9   31 1    
    18   10   11 ar   
    19   11   12 1    
    20   12   13 2    
    21   12   14 am   BACKBONE|DICT|INTERRES
    22   14   15 1    
    23   14   19 1    
    24   15   16 1    
    25   15   32 1    
    26   15   33 1    
    27   16   17 1    
    28   16   34 1    
    29   16   35 1    
    30   17   18 1    
    31   17   20 1    
    32   18   19 1    
    33   18   36 1    
    34   18   37 1    
    35   19   38 1    
    36   19   39 1    
    37   20   21 ar   
    38   20   25 ar   
    39   21   22 ar   
    40   21   40 1    
    41   22   23 ar   
    42   22   41 1    
    43   23   24 ar   
    44   23   42 1    
    45   24   25 ar   
    46   24   43 1    
    47   25   44 1    
@<TRIPOS>SUBSTRUCTURE
     1 LIG         1 GROUP             0 A     ****    0 ROOT    
