@<TRIPOS>MOLECULE
Mpro-x12699_ligand
43   46    1
SMALL
USER_CHARGES


@<TRIPOS>ATOM
      1 O2          9.0118    1.4127   21.2132 O.2       1 LIG        -0.5000 
      2 C10         8.7135    0.2535   21.5124 C.2       1 LIG         0.5000 
      3 C1          9.3420   -0.4453   22.7407 C.3       1 LIG         0.2418 
      4 C9         10.8467   -0.2004   22.7093 C.ar      1 LIG        -0.0418 
      5 C8         11.6475   -0.8987   21.7840 C.ar      1 LIG        -0.1150 
      6 C7         13.0347   -0.7067   21.7477 C.ar      1 LIG         0.1800 
      7 CL         13.9823   -1.6293   20.6497 Cl        1 LIG        -0.1800 
      8 C6         13.6312    0.2266   22.6116 C.ar      1 LIG        -0.1150 
      9 C5         12.8365    0.9326   23.5315 C.ar      1 LIG        -0.1150 
     10 C4         11.4491    0.7208   23.6031 C.ar      1 LIG         0.0850 
     11 O1         10.7477    1.4049   24.5713 O.3       1 LIG        -0.2850 
     12 C3          9.3407    1.4992   24.4010 C.3       1 LIG         0.1400 
     13 C2          8.7283    0.1391   24.0365 C.3       1 LIG        -0.1200 
     14 O           8.9901   -1.8341   22.6523 O.3       1 LIG        -0.4000 
     15 C           9.7152   -2.7669   23.4408 C.3       1 LIG         0.1100 
     16 N           7.8523   -0.4799   20.7903 N.am      1 LIG        -0.3850 
     17 C11         6.9499    0.0602   19.8521 C.ar      1 LIG        -0.4271 
     18 C19         5.7356    0.6686   20.2505 C.ar      1 LIG         0.6486 
     19 C18         5.3323    0.7463   21.6007 C.ar      1 LIG        -0.4445 
     20 C17         4.1288    1.3909   21.9414 C.ar      1 LIG        -0.0460 
     21 C16         3.3230    1.9658   20.9414 C.ar      1 LIG        -0.1533 
     22 C15         3.7111    1.8832   19.5915 C.ar      1 LIG        -0.1818 
     23 C14         4.9039    1.2199   19.2482 C.ar      1 LIG        -0.2505 
     24 C13         5.2961    1.0932   17.9054 C.ar      1 LIG         0.3967 
     25 N1          6.4291    0.4756   17.5265 N.ar      1 LIG        -0.6841 
     26 C12         7.2400   -0.0238   18.4805 C.ar      1 LIG         0.4845 
     27 HC8        11.1930   -1.6210   21.1272 H         1 LIG         0.1150 
     28 HC6        14.6912    0.4119   22.5679 H         1 LIG         0.1150 
     29 HC5        13.2907    1.6552   24.1828 H         1 LIG         0.1150 
     30 H3_1        9.1205    2.2571   23.6508 H         1 LIG         0.0300 
     31 H3_2        8.9079    1.8604   25.3341 H         1 LIG         0.0300 
     32 H2_1        8.9052   -0.5278   24.8778 H         1 LIG         0.0600 
     33 H2_2        7.6442    0.2207   23.9540 H         1 LIG         0.0600 
     34 HXT1        9.1526   -3.6978   23.4665 H         1 LIG         0.0300 
     35 HXT2       10.6903   -2.9957   23.0146 H         1 LIG         0.0300 
     36 HXT3        9.8728   -2.4311   24.4614 H         1 LIG         0.0300 
     37 HN          7.7111   -1.4398   21.0734 H         1 LIG         0.3000 
     38 HC18        5.9307    0.3163   22.3881 H         1 LIG         0.2009 
     39 HC17        3.8263    1.4424   22.9757 H         1 LIG         0.1382 
     40 HC16        2.4046    2.4682   21.2088 H         1 LIG         0.1414 
     41 HC15        3.0946    2.3243   18.8224 H         1 LIG         0.1598 
     42 HC13        4.7004    1.5079   17.1109 H         1 LIG         0.0566 
     43 HC12        8.1515   -0.4931   18.1398 H         1 LIG         0.0456 
@<TRIPOS>BOND
     1    1    2 2    
     2    2    3 1    
     3    2   16 am   BACKBONE|DICT|INTERRES
     4    3    4 1    
     5    3   13 1    
     6    3   14 1    
     7    4    5 ar   
     8    4   10 ar   
     9    5    6 ar   
    10    5   27 1    
    11    6    7 1    
    12    6    8 ar   
    13    8    9 ar   
    14    8   28 1    
    15    9   10 ar   
    16    9   29 1    
    17   10   11 1    
    18   11   12 1    
    19   12   13 1    
    20   12   30 1    
    21   12   31 1    
    22   13   32 1    
    23   13   33 1    
    24   14   15 1    
    25   15   34 1    
    26   15   35 1    
    27   15   36 1    
    28   16   17 1    
    29   16   37 1    
    30   17   18 ar   
    31   17   26 ar   
    32   18   19 ar   
    33   18   23 ar   
    34   19   20 ar   
    35   19   38 1    
    36   20   21 ar   
    37   20   39 1    
    38   21   22 ar   
    39   21   40 1    
    40   22   23 ar   
    41   22   41 1    
    42   23   24 ar   
    43   24   25 ar   
    44   24   42 1    
    45   25   26 ar   
    46   26   43 1    
@<TRIPOS>SUBSTRUCTURE
     1 LIG         1 GROUP             0 A     ****    0 ROOT    
