@<TRIPOS>MOLECULE
Mpro-x11813_ligand
42   44    1
SMALL
USER_CHARGES


@<TRIPOS>ATOM
      1 O2          5.3511   -2.7435   20.7138 O.2       1 LIG        -0.5000 
      2 C9          6.0591   -1.7389   20.7118 C.2       1 LIG         0.6150 
      3 C10         5.7444   -0.5964   19.8021 C.ar      1 LIG        -0.6271 
      4 C18         4.8273    0.4271   20.1517 C.ar      1 LIG         0.6486 
      5 C17         4.2190    0.5087   21.4272 C.ar      1 LIG        -0.4445 
      6 C16         3.2745    1.5150   21.6988 C.ar      1 LIG        -0.0460 
      7 C15         2.9344    2.4543   20.7093 C.ar      1 LIG        -0.1533 
      8 C14         3.5468    2.3991   19.4441 C.ar      1 LIG        -0.1818 
      9 C13         4.4907    1.3905   19.1689 C.ar      1 LIG        -0.2505 
     10 C12         5.1012    1.3103   17.9042 C.ar      1 LIG         0.3967 
     11 N1          6.0080    0.3680   17.5851 N.ar      1 LIG        -0.6841 
     12 C11         6.3139   -0.5593   18.5127 C.ar      1 LIG         0.4845 
     13 N           7.1285   -1.5824   21.4971 N.am      1 LIG        -0.5000 
     14 C8          7.5893   -2.5710   22.4645 C.3       1 LIG         0.0800 
     15 C7          9.1113   -2.5391   22.5541 C.3       1 LIG         0.1400 
     16 O1          9.4872   -1.2522   23.0122 O.3       1 LIG        -0.2850 
     17 C6         10.8180   -0.9128   22.9616 C.ar      1 LIG         0.0850 
     18 C1         11.1329    0.4416   23.2046 C.ar      1 LIG         0.0850 
     19 O          10.0805    1.2933   23.4631 O.3       1 LIG        -0.2850 
     20 C          10.3538    2.6826   23.5496 C.3       1 LIG         0.1100 
     21 C5         11.8511   -1.8384   22.6748 C.ar      1 LIG        -0.1150 
     22 C4         13.1878   -1.4147   22.6147 C.ar      1 LIG        -0.1150 
     23 C3         13.4959   -0.0675   22.8541 C.ar      1 LIG        -0.1150 
     24 C2         12.4833    0.8573   23.1542 C.ar      1 LIG        -0.1150 
     25 HC17        4.4635   -0.1915   22.2095 H         1 LIG         0.2009 
     26 HC16        2.8067    1.5619   22.6703 H         1 LIG         0.1382 
     27 HC15        2.2058    3.2215   20.9242 H         1 LIG         0.1414 
     28 HC14        3.2854    3.1273   18.6898 H         1 LIG         0.1598 
     29 HC12        4.8631    2.0177   17.1246 H         1 LIG         0.0566 
     30 HC11        7.0158   -1.3133   18.1947 H         1 LIG         0.0456 
     31 HN          7.6556   -0.7213   21.4265 H         1 LIG         0.3000 
     32 H8_1        7.2729   -3.5768   22.1828 H         1 LIG         0.0600 
     33 H8_2        7.1473   -2.3551   23.4377 H         1 LIG         0.0600 
     34 H7_1        9.5351   -2.7422   21.5694 H         1 LIG         0.0300 
     35 H7_2        9.4635   -3.3037   23.2479 H         1 LIG         0.0300 
     36 HXT1        9.4211    3.2248   23.7038 H         1 LIG         0.0300 
     37 HXT2       11.0085    2.9055   24.3901 H         1 LIG         0.0300 
     38 HXT3       10.8069    3.0569   22.6300 H         1 LIG         0.0300 
     39 HC5        11.6401   -2.8791   22.4932 H         1 LIG         0.1150 
     40 HC4        13.9697   -2.1208   22.3806 H         1 LIG         0.1150 
     41 HC3        14.5084    0.2809   22.7801 H         1 LIG         0.1150 
     42 HC2        12.7693    1.8849   23.3186 H         1 LIG         0.1150 
@<TRIPOS>BOND
     1    1    2 2    
     2    2    3 1    
     3    2   13 am   BACKBONE|DICT|INTERRES
     4    3    4 ar   
     5    3   12 ar   
     6    4    5 ar   
     7    4    9 ar   
     8    5    6 ar   
     9    5   25 1    
    10    6    7 ar   
    11    6   26 1    
    12    7    8 ar   
    13    7   27 1    
    14    8    9 ar   
    15    8   28 1    
    16    9   10 ar   
    17   10   11 ar   
    18   10   29 1    
    19   11   12 ar   
    20   12   30 1    
    21   13   14 1    
    22   13   31 1    
    23   14   15 1    
    24   14   32 1    
    25   14   33 1    
    26   15   16 1    
    27   15   34 1    
    28   15   35 1    
    29   16   17 1    
    30   17   18 ar   
    31   17   21 ar   
    32   18   19 1    
    33   18   24 ar   
    34   19   20 1    
    35   20   36 1    
    36   20   37 1    
    37   20   38 1    
    38   21   22 ar   
    39   21   39 1    
    40   22   23 ar   
    41   22   40 1    
    42   23   24 ar   
    43   23   41 1    
    44   24   42 1    
@<TRIPOS>SUBSTRUCTURE
     1 LIG         1 GROUP             0 A     ****    0 ROOT    
