@<TRIPOS>MOLECULE
Mpro-x12143_ligand
48   51    1
SMALL
USER_CHARGES


@<TRIPOS>ATOM
      1 O           9.0185    1.3826   21.1438 O.2       1 LIG        -0.5000 
      2 C12         8.7910    0.3421   21.7669 C.2       1 LIG         0.5000 
      3 C13         8.0613   -0.8003   21.0320 C.3       1 LIG         0.0025 
      4 N3          7.2003   -0.2674   19.9904 N.pl3     1 LIG         0.0636 
      5 C19         6.0242    0.4407   20.1306 C.ar      1 LIG        -0.0957 
      6 C18         5.1910    0.8169   21.1952 C.ar      1 LIG        -0.1150 
      7 C17         4.0907    1.6538   20.9265 C.ar      1 LIG        -0.1150 
      8 C16         3.8521    2.1049   19.6107 C.ar      1 LIG        -0.1150 
      9 C15         4.6941    1.7047   18.5530 C.ar      1 LIG        -0.1150 
     10 C14         5.7833    0.8484   18.8025 C.ar      1 LIG         0.2502 
     11 N5          6.7423    0.3208   17.9642 N.2       1 LIG        -0.4222 
     12 N4          7.5798   -0.3549   18.6872 N.2       1 LIG         0.0816 
     13 N1          9.1401    0.1846   23.0706 N.am      1 LIG        -0.0317 
     14 C8          9.5434    1.3373   23.8908 C.3       1 LIG         0.0650 
     15 C9         10.8056    1.9784   23.4160 C.2       1 LIG         0.1693 
     16 N2         10.7557    3.2724   22.8950 N.2       1 LIG        -0.4803 
     17 C11        11.9299    3.6471   22.3978 C.2       1 LIG         0.1603 
     18 S          13.2021    2.4683   22.6060 S.3       1 LIG         0.0010 
     19 C10        12.0522    1.4095   23.3608 C.2       1 LIG        -0.3376 
     20 C5          9.0237   -1.0606   23.7359 C.ar      1 LIG        -0.0383 
     21 C4          9.8066   -2.1609   23.3353 C.ar      1 LIG        -0.1150 
     22 C3          9.7023   -3.3796   24.0263 C.ar      1 LIG        -0.1150 
     23 C6          8.1462   -1.1879   24.8297 C.ar      1 LIG        -0.1150 
     24 C7          8.0365   -2.4115   25.5103 C.ar      1 LIG        -0.1150 
     25 C2          8.8114   -3.5285   25.1194 C.ar      1 LIG         0.2100 
     26 N           8.7108   -4.7501   25.8163 N.pl3     1 LIG        -0.6300 
     27 C1          7.5849   -4.9942   26.7093 C.3       1 LIG         0.0300 
     28 C           9.5729   -5.8531   25.4325 C.3       1 LIG         0.0300 
     29 H131        7.4334   -1.3819   21.7069 H         1 LIG         0.0600 
     30 H132        8.8002   -1.4735   20.5983 H         1 LIG         0.0600 
     31 HC18        5.3961    0.4773   22.1987 H         1 LIG         0.1150 
     32 HC17        3.4393    1.9621   21.7306 H         1 LIG         0.1150 
     33 HC16        3.0191    2.7602   19.4045 H         1 LIG         0.1150 
     34 HC15        4.5195    2.0649   17.5525 H         1 LIG         0.1150 
     35 H8_1        9.6755    1.0401   24.9322 H         1 LIG         0.0600 
     36 H8_2        8.7337    2.0655   23.9024 H         1 LIG         0.0600 
     37 HC11       12.0410    4.6075   21.9180 H         1 LIG         0.1406 
     38 HC10       12.3528    0.4288   23.6902 H         1 LIG         0.2317 
     39 HC4        10.4972   -2.0742   22.5086 H         1 LIG         0.1150 
     40 HC3        10.3342   -4.1893   23.6996 H         1 LIG         0.1150 
     41 HC6         7.5492   -0.3496   25.1542 H         1 LIG         0.1150 
     42 HC7         7.3552   -2.4630   26.3461 H         1 LIG         0.1150 
     43 H1_1        7.5748   -6.0224   27.0698 H         1 LIG         0.0600 
     44 H1_2        7.6409   -4.3446   27.5811 H         1 LIG         0.0600 
     45 H1_3        6.6390   -4.8115   26.1984 H         1 LIG         0.0600 
     46 HXT1        9.3289   -6.7377   26.0082 H         1 LIG         0.0600 
     47 HXT2        9.4437   -6.1071   24.3801 H         1 LIG         0.0600 
     48 HXT3       10.6186   -5.6051   25.6165 H         1 LIG         0.0600 
@<TRIPOS>BOND
     1    1    2 2    
     2    2    3 1    
     3    2   13 am   BACKBONE|DICT|INTERRES
     4    3    4 1    
     5    3   29 1    
     6    3   30 1    
     7    4    5 ar   
     8    4   12 ar   
     9    5    6 ar   
    10    5   10 ar   
    11    6    7 ar   
    12    6   31 1    
    13    7    8 ar   
    14    7   32 1    
    15    8    9 ar   
    16    8   33 1    
    17    9   10 ar   
    18    9   34 1    
    19   10   11 ar   
    20   11   12 ar   
    21   13   14 1    
    22   13   20 1    
    23   14   15 1    
    24   14   35 1    
    25   14   36 1    
    26   15   16 1    
    27   15   19 2    
    28   16   17 2    
    29   17   18 1    
    30   17   37 1    
    31   18   19 1    
    32   19   38 1    
    33   20   21 ar   
    34   20   23 ar   
    35   21   22 ar   
    36   21   39 1    
    37   22   25 ar   
    38   22   40 1    
    39   23   24 ar   
    40   23   41 1    
    41   24   25 ar   
    42   24   42 1    
    43   25   26 1    
    44   26   27 1    
    45   26   28 1    
    46   27   43 1    
    47   27   44 1    
    48   27   45 1    
    49   28   46 1    
    50   28   47 1    
    51   28   48 1    
@<TRIPOS>SUBSTRUCTURE
     1 LIG         1 GROUP             0 A     ****    0 ROOT    
