@<TRIPOS>MOLECULE
Mpro-x11642_ligand
49   52    1
SMALL
USER_CHARGES


@<TRIPOS>ATOM
      1 O2          8.4898    0.9734   20.9689 O.2       1 LIG        -0.5000 
      2 C11         8.3402   -0.2059   21.3018 C.2       1 LIG         0.5000 
      3 C12         7.1303   -1.0084   20.8270 C.3       1 LIG        -0.0050 
      4 C13         6.3386   -0.2190   19.8005 C.ar      1 LIG        -0.2232 
      5 C21         5.3005    0.6789   20.1605 C.ar      1 LIG         0.3916 
      6 C20         4.8831    0.8574   21.4993 C.ar      1 LIG        -0.3888 
      7 C19         3.8374    1.7469   21.8030 C.ar      1 LIG         0.0388 
      8 C18         3.2044    2.4732   20.7789 C.ar      1 LIG        -0.1058 
      9 C17         3.6270    2.3282   19.4455 C.ar      1 LIG        -0.2582 
     10 C16         4.6696    1.4338   19.1368 C.ar      1 LIG         0.0891 
     11 C15         5.0938    1.2821   17.8039 C.ar      1 LIG         0.0225 
     12 N1          6.0761    0.4119   17.5107 N.pl3     1 LIG        -0.2229 
     13 C14         6.7000   -0.3310   18.4429 C.ar      1 LIG         0.0028 
     14 N           9.2137   -0.8826   22.0564 N.am      1 LIG        -0.3850 
     15 C10        10.4069   -0.3665   22.6004 C.ar      1 LIG         0.0850 
     16 C9         11.5278   -1.2093   22.6193 C.ar      1 LIG        -0.1150 
     17 C8         12.7408   -0.7423   23.1426 C.ar      1 LIG         0.1800 
     18 CL         14.1008   -1.7826   23.0973 Cl        1 LIG        -0.1800 
     19 C7         12.8350    0.5567   23.6774 C.ar      1 LIG        -0.1150 
     20 C22        10.4929    0.9369   23.1419 C.ar      1 LIG        -0.1150 
     21 C6         11.7076    1.4056   23.6730 C.ar      1 LIG         0.0850 
     22 O1         11.7568    2.6691   24.2039 O.3       1 LIG        -0.1716 
     23 C5         12.3715    3.6909   23.5138 C.ar      1 LIG         0.5716 
     24 C4         13.0098    3.5284   22.2640 C.ar      1 LIG        -0.4470 
     25 C3         13.6960    4.6212   21.7080 C.ar      1 LIG         0.2270 
     26 C2         13.7117    5.8406   22.4084 C.ar      1 LIG        -0.4470 
     27 N2         12.3599    4.8705   24.1690 N.ar      1 LIG        -0.6780 
     28 C1         13.0268    5.9219   23.6350 C.ar      1 LIG         0.5716 
     29 O          13.0294    7.1197   24.3197 O.3       1 LIG        -0.2866 
     30 C          12.4559    7.1530   25.6208 C.3       1 LIG         0.1100 
     31 H121        6.5191   -1.3096   21.6750 H         1 LIG         0.0600 
     32 H122        7.4755   -1.9364   20.3811 H         1 LIG         0.0600 
     33 HC20        5.3403    0.3237   22.3176 H         1 LIG         0.2196 
     34 HC19        3.5178    1.8635   22.8264 H         1 LIG         0.1626 
     35 HC18        2.3969    3.1491   21.0190 H         1 LIG         0.1745 
     36 HC17        3.1484    2.9032   18.6655 H         1 LIG         0.2071 
     37 HC15        4.6933    1.8390   16.9713 H         1 LIG         0.2004 
     38 HN1         6.3794    0.3128   16.5391 H         1 LIG         0.3716 
     39 HC14        7.4926   -0.9674   18.0793 H         1 LIG         0.2033 
     40 HN          9.0611   -1.8757   22.1630 H         1 LIG         0.3000 
     41 HC9        11.4669   -2.2083   22.2116 H         1 LIG         0.1150 
     42 HC7        13.7711    0.9040   24.0771 H         1 LIG         0.1150 
     43 HC22        9.6311    1.5874   23.1631 H         1 LIG         0.1150 
     44 HC4        12.9967    2.5841   21.7476 H         1 LIG         0.1550 
     45 HC3        14.2191    4.5212   20.7707 H         1 LIG         0.0650 
     46 HC2        14.2355    6.6985   22.0135 H         1 LIG         0.1550 
     47 HXT1       12.5681    8.1524   26.0385 H         1 LIG         0.0300 
     48 HXT2       11.3899    6.9234   25.5963 H         1 LIG         0.0300 
     49 HXT3       12.9584    6.4558   26.2926 H         1 LIG         0.0300 
@<TRIPOS>BOND
     1    1    2 2    
     2    2    3 1    
     3    2   14 am   BACKBONE|DICT|INTERRES
     4    3    4 1    
     5    3   31 1    
     6    3   32 1    
     7    4    5 ar   
     8    4   13 ar   
     9    5    6 ar   
    10    5   10 ar   
    11    6    7 ar   
    12    6   33 1    
    13    7    8 ar   
    14    7   34 1    
    15    8    9 ar   
    16    8   35 1    
    17    9   10 ar   
    18    9   36 1    
    19   10   11 ar   
    20   11   12 ar   
    21   11   37 1    
    22   12   13 ar   
    23   12   38 1    
    24   13   39 1    
    25   14   15 1    
    26   14   40 1    
    27   15   16 ar   
    28   15   20 ar   
    29   16   17 ar   
    30   16   41 1    
    31   17   18 1    
    32   17   19 ar   
    33   19   21 ar   
    34   19   42 1    
    35   20   21 ar   
    36   20   43 1    
    37   21   22 1    
    38   22   23 1    
    39   23   24 ar   
    40   23   27 ar   
    41   24   25 ar   
    42   24   44 1    
    43   25   26 ar   
    44   25   45 1    
    45   26   28 ar   
    46   26   46 1    
    47   27   28 ar   
    48   28   29 1    
    49   29   30 1    
    50   30   47 1    
    51   30   48 1    
    52   30   49 1    
@<TRIPOS>SUBSTRUCTURE
     1 LIG         1 GROUP             0 A     ****    0 ROOT    
