@<TRIPOS>MOLECULE
Mpro-x11562_ligand
44   45    1
SMALL
USER_CHARGES


@<TRIPOS>ATOM
      1 O1          8.7537    0.6586   20.9436 O.2       1 LIG        -0.5000 
      2 C11         8.1572   -0.3854   21.2194 C.2       1 LIG         0.5000 
      3 N           6.9538   -0.6845   20.7204 N.am      1 LIG        -0.3850 
      4 C12         6.3026    0.0816   19.7366 C.ar      1 LIG        -0.2070 
      5 C16         5.1950    0.8996   20.0490 C.ar      1 LIG         0.1770 
      6 C17         4.6645    1.0089   21.4656 C.3       1 LIG        -0.0650 
      7 C15         4.6085    1.6453   19.0081 C.ar      1 LIG        -0.4470 
      8 C14         5.1392    1.5233   17.7100 C.ar      1 LIG         0.4730 
      9 N1          6.1838    0.7280   17.4053 N.ar      1 LIG        -0.6780 
     10 C13         6.7517    0.0253   18.4043 C.ar      1 LIG         0.4730 
     11 C10         8.7407   -1.4117   22.1974 C.3       1 LIG        -0.0050 
     12 C9         10.0554   -0.9220   22.7674 C.ar      1 LIG        -0.1150 
     13 C8         11.2586   -1.4488   22.2748 C.ar      1 LIG        -0.1150 
     14 C7         12.4798   -0.8973   22.6823 C.ar      1 LIG         0.1800 
     15 CL         13.9251   -1.5314   22.0148 Cl        1 LIG        -0.1800 
     16 C6         12.5093    0.1667   23.6038 C.ar      1 LIG        -0.1150 
     17 C5         11.3070    0.6468   24.1581 C.ar      1 LIG        -0.1150 
     18 C4         10.0751    0.1023   23.7367 C.ar      1 LIG         0.0850 
     19 O           8.8788    0.6176   24.1584 O.3       1 LIG        -0.2850 
     20 C3          8.6191    0.5099   25.5441 C.3       1 LIG         0.1400 
     21 C2          7.1320    0.8252   25.7602 C.3       1 LIG        -0.1200 
     22 C1          6.1903   -0.1353   25.0108 C.3       1 LIG        -0.1200 
     23 C           4.7126    0.1968   25.2416 C.3       1 LIG        -0.1800 
     24 HN          6.4827   -1.5148   21.0612 H         1 LIG         0.3000 
     25 H171        3.7058    1.5268   21.4874 H         1 LIG         0.0600 
     26 H172        4.5234    0.0207   21.9037 H         1 LIG         0.0600 
     27 H173        5.3677    1.5630   22.0881 H         1 LIG         0.0600 
     28 HC15        3.7776    2.3093   19.1941 H         1 LIG         0.1550 
     29 HC14        4.7422    2.1095   16.8979 H         1 LIG         0.0120 
     30 HC13        7.5964   -0.5921   18.1352 H         1 LIG         0.0120 
     31 H101        8.8857   -2.3600   21.6791 H         1 LIG         0.0600 
     32 H102        8.0384   -1.5985   23.0093 H         1 LIG         0.0600 
     33 HC8        11.2488   -2.2441   21.5465 H         1 LIG         0.1150 
     34 HC6        13.4525    0.5957   23.8985 H         1 LIG         0.1150 
     35 HC5        11.3265    1.4644   24.8621 H         1 LIG         0.1150 
     36 H3_1        9.2391    1.2178   26.0940 H         1 LIG         0.0300 
     37 H3_2        8.8530   -0.4932   25.9062 H         1 LIG         0.0300 
     38 H2_1        6.9357    1.8495   25.4418 H         1 LIG         0.0600 
     39 H2_2        6.9144    0.7896   26.8281 H         1 LIG         0.0600 
     40 H1_1        6.3862   -1.1622   25.3213 H         1 LIG         0.0600 
     41 H1_2        6.3927   -0.0914   23.9404 H         1 LIG         0.0600 
     42 HXT1        4.0662   -0.4839   24.6912 H         1 LIG         0.0600 
     43 HXT2        4.4530    0.1213   26.2976 H         1 LIG         0.0600 
     44 HXT3        4.4816    1.2097   24.9109 H         1 LIG         0.0600 
@<TRIPOS>BOND
     1    1    2 2    
     2    2    3 am   BACKBONE|DICT|INTERRES
     3    2   11 1    
     4    3    4 1    
     5    3   24 1    
     6    4    5 ar   
     7    4   10 ar   
     8    5    6 1    
     9    5    7 ar   
    10    6   25 1    
    11    6   26 1    
    12    6   27 1    
    13    7    8 ar   
    14    7   28 1    
    15    8    9 ar   
    16    8   29 1    
    17    9   10 ar   
    18   10   30 1    
    19   11   12 1    
    20   11   31 1    
    21   11   32 1    
    22   12   13 ar   
    23   12   18 ar   
    24   13   14 ar   
    25   13   33 1    
    26   14   15 1    
    27   14   16 ar   
    28   16   17 ar   
    29   16   34 1    
    30   17   18 ar   
    31   17   35 1    
    32   18   19 1    
    33   19   20 1    
    34   20   21 1    
    35   20   36 1    
    36   20   37 1    
    37   21   22 1    
    38   21   38 1    
    39   21   39 1    
    40   22   23 1    
    41   22   40 1    
    42   22   41 1    
    43   23   42 1    
    44   23   43 1    
    45   23   44 1    
@<TRIPOS>SUBSTRUCTURE
     1 LIG         1 GROUP             0 A     ****    0 ROOT    
