@<TRIPOS>MOLECULE
Mpro-x11797_ligand
49   52    1
SMALL
USER_CHARGES


@<TRIPOS>ATOM
      1 O           8.9956    1.5332   21.1735 O.2       1 LIG        -0.5000 
      2 C12         8.8313    0.4663   21.7697 C.2       1 LIG         0.5000 
      3 C13         8.0953   -0.6871   21.0555 C.3       1 LIG         0.0025 
      4 N4          7.2238   -0.1809   20.0139 N.pl3     1 LIG         0.0636 
      5 C19         6.0271    0.4918   20.1536 C.ar      1 LIG        -0.0957 
      6 C18         5.1884    0.8559   21.2183 C.ar      1 LIG        -0.1150 
      7 C17         4.0536    1.6443   20.9424 C.ar      1 LIG        -0.1150 
      8 C16         3.7899    2.0608   19.6211 C.ar      1 LIG        -0.1150 
      9 C15         4.6392    1.6737   18.5643 C.ar      1 LIG        -0.1150 
     10 C14         5.7630    0.8666   18.8204 C.ar      1 LIG         0.2502 
     11 N6          6.7370    0.3629   17.9849 N.2       1 LIG        -0.4222 
     12 N5          7.6042   -0.2702   18.7115 N.2       1 LIG         0.0816 
     13 N1          9.2769    0.2812   23.0355 N.am      1 LIG        -0.0317 
     14 C8          9.8788    1.3920   23.7858 C.3       1 LIG         0.0650 
     15 C9         11.2885    1.6447   23.3596 C.ar      1 LIG         0.0560 
     16 N3         11.7185    2.8507   22.8543 N.pl3     1 LIG        -0.1490 
     17 N2         13.0092    2.8300   22.4731 N.2       1 LIG        -0.5310 
     18 C11        13.4022    1.5973   22.7452 C.ar      1 LIG         0.2660 
     19 C10        12.3655    0.8086   23.3134 C.ar      1 LIG        -0.3200 
     20 C5          9.1902   -0.9773   23.6775 C.ar      1 LIG        -0.0383 
     21 C4         10.0210   -2.0405   23.2754 C.ar      1 LIG        -0.1150 
     22 C3          9.9231   -3.2864   23.9177 C.ar      1 LIG        -0.1150 
     23 C6          8.2670   -1.1702   24.7208 C.ar      1 LIG        -0.1150 
     24 C7          8.1704   -2.4172   25.3611 C.ar      1 LIG        -0.1150 
     25 C2          8.9961   -3.4984   24.9706 C.ar      1 LIG         0.2100 
     26 N           8.9025   -4.7498   25.6155 N.pl3     1 LIG        -0.6300 
     27 C1          7.8747   -4.9988   26.6177 C.3       1 LIG         0.0300 
     28 C           9.8250   -5.8102   25.2535 C.3       1 LIG         0.0300 
     29 H131        7.4747   -1.2580   21.7464 H         1 LIG         0.0600 
     30 H132        8.8279   -1.3703   20.6255 H         1 LIG         0.0600 
     31 HC18        5.4149    0.5482   22.2284 H         1 LIG         0.1150 
     32 HC17        3.3956    1.9424   21.7449 H         1 LIG         0.1150 
     33 HC16        2.9337    2.6819   19.4116 H         1 LIG         0.1150 
     34 HC15        4.4448    2.0047   17.5581 H         1 LIG         0.1150 
     35 H8_1        9.8667    1.1702   24.8540 H         1 LIG         0.0600 
     36 H8_2        9.2784    2.2964   23.6742 H         1 LIG         0.0600 
     37 HN3        11.1430    3.6738   22.7357 H         1 LIG         0.3410 
     38 HC11       14.4178    1.3108   22.5163 H         1 LIG         0.0720 
     39 HC10       12.3931   -0.2207   23.6179 H         1 LIG         0.1500 
     40 HC4        10.7334   -1.9056   22.4741 H         1 LIG         0.1150 
     41 HC3        10.5857   -4.0683   23.5846 H         1 LIG         0.1150 
     42 HC6         7.6167   -0.3677   25.0260 H         1 LIG         0.1150 
     43 HC7         7.4508   -2.5166   26.1596 H         1 LIG         0.1150 
     44 H1_1        7.9131   -6.0240   26.9849 H         1 LIG         0.0600 
     45 H1_2        8.0150   -4.3390   27.4714 H         1 LIG         0.0600 
     46 H1_3        6.8803   -4.8297   26.2035 H         1 LIG         0.0600 
     47 HXT1        9.6301   -6.7070   25.8325 H         1 LIG         0.0600 
     48 HXT2        9.7183   -6.0728   24.2008 H         1 LIG         0.0600 
     49 HXT3       10.8541   -5.5041   25.4429 H         1 LIG         0.0600 
@<TRIPOS>BOND
     1    1    2 2    
     2    2    3 1    
     3    2   13 am   BACKBONE|DICT|INTERRES
     4    3    4 1    
     5    3   29 1    
     6    3   30 1    
     7    4    5 ar   
     8    4   12 ar   
     9    5    6 ar   
    10    5   10 ar   
    11    6    7 ar   
    12    6   31 1    
    13    7    8 ar   
    14    7   32 1    
    15    8    9 ar   
    16    8   33 1    
    17    9   10 ar   
    18    9   34 1    
    19   10   11 ar   
    20   11   12 ar   
    21   13   14 1    
    22   13   20 1    
    23   14   15 1    
    24   14   35 1    
    25   14   36 1    
    26   15   16 ar   
    27   15   19 ar   
    28   16   17 ar   
    29   16   37 1    
    30   17   18 ar   
    31   18   19 ar   
    32   18   38 1    
    33   19   39 1    
    34   20   21 ar   
    35   20   23 ar   
    36   21   22 ar   
    37   21   40 1    
    38   22   25 ar   
    39   22   41 1    
    40   23   24 ar   
    41   23   42 1    
    42   24   25 ar   
    43   24   43 1    
    44   25   26 1    
    45   26   27 1    
    46   26   28 1    
    47   27   44 1    
    48   27   45 1    
    49   27   46 1    
    50   28   47 1    
    51   28   48 1    
    52   28   49 1    
@<TRIPOS>SUBSTRUCTURE
     1 LIG         1 GROUP             0 A     ****    0 ROOT    
