@<TRIPOS>MOLECULE
Mpro-x11564_ligand
44   46    1
SMALL
USER_CHARGES


@<TRIPOS>ATOM
      1 O           8.5239    1.1160   20.9149 O.2       1 LIG        -0.5000 
      2 C13         8.0612    0.0519   21.3315 C.2       1 LIG         0.5000 
      3 N           6.9500   -0.4911   20.8213 N.am      1 LIG        -0.3850 
      4 C14         6.2131    0.1255   19.7926 C.ar      1 LIG        -0.2070 
      5 C18         5.0640    0.8974   20.0720 C.ar      1 LIG         0.1770 
      6 C19         4.5269    1.0398   21.4824 C.3       1 LIG        -0.0650 
      7 C17         4.4424    1.5712   19.0030 C.ar      1 LIG        -0.4470 
      8 C16         4.9812    1.4224   17.7116 C.ar      1 LIG         0.4730 
      9 N1          6.0546    0.6563   17.4360 N.ar      1 LIG        -0.6780 
     10 C15         6.6559    0.0224   18.4606 C.ar      1 LIG         0.4730 
     11 C12         8.7220   -0.7111   22.4851 C.3       1 LIG        -0.0050 
     12 C11        10.1401   -0.2346   22.7478 C.ar      1 LIG        -0.1150 
     13 C10        11.2152   -1.1061   22.5205 C.ar      1 LIG        -0.1150 
     14 C9         12.5275   -0.6477   22.6978 C.ar      1 LIG         0.1800 
     15 CL         13.8178   -1.7163   22.3223 Cl        1 LIG        -0.1800 
     16 C8         12.7742    0.6721   23.1315 C.ar      1 LIG        -0.1150 
     17 C20        10.3912    1.0863   23.1775 C.ar      1 LIG        -0.1150 
     18 C7         11.7054    1.5724   23.3607 C.ar      1 LIG         0.0000 
     19 C4         11.9453    2.9887   23.7315 C.ar      1 LIG         0.0000 
     20 C3         13.0713    3.6773   23.2187 C.ar      1 LIG        -0.1150 
     21 C2         13.3440    5.0102   23.5801 C.ar      1 LIG        -0.1150 
     22 C5         11.0705    3.7045   24.5885 C.ar      1 LIG         0.1300 
     23 F           9.9808    3.1078   25.1296 F         1 LIG        -0.1300 
     24 C6         11.3277    5.0456   24.9335 C.ar      1 LIG         0.1300 
     25 F1         10.4727    5.6966   25.7586 F         1 LIG        -0.1300 
     26 C1         12.4845    5.6926   24.4601 C.ar      1 LIG        -0.1150 
     27 C          12.8157    7.0962   24.9239 C.3       1 LIG        -0.0650 
     28 HN          6.5796   -1.3378   21.2378 H         1 LIG         0.3000 
     29 H191        3.5382    1.4985   21.4804 H         1 LIG         0.0600 
     30 H192        4.4464    0.0652   21.9639 H         1 LIG         0.0600 
     31 H193        5.1908    1.6636   22.0797 H         1 LIG         0.0600 
     32 HC17        3.5802    2.2021   19.1617 H         1 LIG         0.1550 
     33 HC16        4.5562    1.9506   16.8754 H         1 LIG         0.0120 
     34 HC15        7.5359   -0.5530   18.2145 H         1 LIG         0.0120 
     35 H121        8.7291   -1.7763   22.2496 H         1 LIG         0.0600 
     36 H122        8.1269   -0.5929   23.3896 H         1 LIG         0.0600 
     37 HC10       11.0411   -2.1140   22.1712 H         1 LIG         0.1150 
     38 HC8        13.7965    0.9970   23.2542 H         1 LIG         0.1150 
     39 HC20        9.5494    1.7479   23.3083 H         1 LIG         0.1150 
     40 HC3        13.7547    3.1813   22.5484 H         1 LIG         0.1150 
     41 HC2        14.2241    5.4969   23.1863 H         1 LIG         0.1150 
     42 HXT1       11.9153    7.6493   25.1833 H         1 LIG         0.0600 
     43 HXT2       13.4394    7.0539   25.8162 H         1 LIG         0.0600 
     44 HXT3       13.3492    7.6504   24.1511 H         1 LIG         0.0600 
@<TRIPOS>BOND
     1    1    2 2    
     2    2    3 am   BACKBONE|DICT|INTERRES
     3    2   11 1    
     4    3    4 1    
     5    3   28 1    
     6    4    5 ar   
     7    4   10 ar   
     8    5    6 1    
     9    5    7 ar   
    10    6   29 1    
    11    6   30 1    
    12    6   31 1    
    13    7    8 ar   
    14    7   32 1    
    15    8    9 ar   
    16    8   33 1    
    17    9   10 ar   
    18   10   34 1    
    19   11   12 1    
    20   11   35 1    
    21   11   36 1    
    22   12   13 ar   
    23   12   17 ar   
    24   13   14 ar   
    25   13   37 1    
    26   14   15 1    
    27   14   16 ar   
    28   16   18 ar   
    29   16   38 1    
    30   17   18 ar   
    31   17   39 1    
    32   18   19 1    
    33   19   20 ar   
    34   19   22 ar   
    35   20   21 ar   
    36   20   40 1    
    37   21   26 ar   
    38   21   41 1    
    39   22   23 1    
    40   22   24 ar   
    41   24   25 1    
    42   24   26 ar   
    43   26   27 1    
    44   27   42 1    
    45   27   43 1    
    46   27   44 1    
@<TRIPOS>SUBSTRUCTURE
     1 LIG         1 GROUP             0 A     ****    0 ROOT    
