@<TRIPOS>MOLECULE
Mpro-x12716_ligand
45   48    1
SMALL
USER_CHARGES


@<TRIPOS>ATOM
      1 O1          9.2988    0.6702   20.9916 O.2       1 LIG        -0.5000 
      2 C10         8.6297   -0.1304   21.6487 C.2       1 LIG         0.5000 
      3 C1          9.2412   -0.8476   22.8891 C.3       1 LIG         0.1150 
      4 C9         10.7445   -0.5309   22.8650 C.ar      1 LIG        -0.1150 
      5 C8         11.6057   -1.2321   21.9897 C.ar      1 LIG        -0.1150 
      6 C7         12.9582   -0.8848   21.8766 C.ar      1 LIG         0.1800 
      7 CL         13.9570   -1.7557   20.7822 Cl        1 LIG        -0.1800 
      8 C6         13.4770    0.1674   22.6465 C.ar      1 LIG        -0.1150 
      9 C5         12.6381    0.8600   23.5365 C.ar      1 LIG        -0.1150 
     10 C4         11.2783    0.5200   23.6603 C.ar      1 LIG         0.0850 
     11 O          10.5333    1.2354   24.5700 O.3       1 LIG        -0.2850 
     12 C3          9.1205    1.1733   24.4448 C.3       1 LIG         0.1400 
     13 C2          8.6445   -0.2633   24.1917 C.3       1 LIG        -0.1200 
     14 C           9.0251   -2.3963   22.8435 C.3       1 LIG         0.1900 
     15 N           7.6342   -2.8431   23.0628 N.4       1 LIG        -0.3000 
     16 N1          7.3386   -0.3574   21.3620 N.am      1 LIG        -0.3850 
     17 C11         6.6530    0.1737   20.2424 C.ar      1 LIG        -0.4271 
     18 C19         5.3978    0.8026   20.4016 C.ar      1 LIG         0.6486 
     19 C18         4.7767    0.9287   21.6641 C.ar      1 LIG        -0.4445 
     20 C17         3.5352    1.5801   21.7765 C.ar      1 LIG        -0.0460 
     21 C16         2.9177    2.1237   20.6361 C.ar      1 LIG        -0.1533 
     22 C15         3.5383    2.0188   19.3774 C.ar      1 LIG        -0.1818 
     23 C14         4.7640    1.3383   19.2561 C.ar      1 LIG        -0.2505 
     24 C13         5.3898    1.1822   18.0042 C.ar      1 LIG         0.3967 
     25 N2          6.5675    0.5486   17.8427 N.ar      1 LIG        -0.6841 
     26 C12         7.1892    0.0707   18.9391 C.ar      1 LIG         0.4845 
     27 HC8        11.2394   -2.0318   21.3692 H         1 LIG         0.1150 
     28 HC6        14.5109    0.4535   22.5478 H         1 LIG         0.1150 
     29 HC5        13.0334    1.6763   24.1146 H         1 LIG         0.1150 
     30 H3_1        8.7965    1.8497   23.6529 H         1 LIG         0.0300 
     31 H3_2        8.6841    1.5501   25.3702 H         1 LIG         0.0300 
     32 H2_1        8.9529   -0.8737   25.0417 H         1 LIG         0.0600 
     33 H2_2        7.5544   -0.2924   24.1783 H         1 LIG         0.0600 
     34 HXT1        9.6460   -2.8778   23.6007 H         1 LIG         0.0600 
     35 HXT2        9.3265   -2.8095   21.8817 H         1 LIG         0.0600 
     36 H__1        7.6063   -3.8525   23.0634 H         1 LIG         0.3300 
     37 H__2        7.3117   -2.5099   23.9618 H         1 LIG         0.3300 
     38 H__3        7.0329   -2.5028   22.3272 H         1 LIG         0.3300 
     39 HN1         6.7697   -0.8052   22.0631 H         1 LIG         0.3000 
     40 HC18        5.2350    0.5350   22.5581 H         1 LIG         0.2009 
     41 HC17        3.0602    1.6713   22.7425 H         1 LIG         0.1382 
     42 HC16        1.9718    2.6342   20.7330 H         1 LIG         0.1414 
     43 HC15        3.0702    2.4622   18.5103 H         1 LIG         0.1598 
     44 HC13        4.9502    1.5876   17.1076 H         1 LIG         0.0566 
     45 HC12        8.1380   -0.4152   18.7639 H         1 LIG         0.0456 
@<TRIPOS>BOND
     1    1    2 2    
     2    2    3 1    
     3    2   16 am   BACKBONE|DICT|INTERRES
     4    3    4 1    
     5    3   13 1    
     6    3   14 1    
     7    4    5 ar   
     8    4   10 ar   
     9    5    6 ar   
    10    5   27 1    
    11    6    7 1    
    12    6    8 ar   
    13    8    9 ar   
    14    8   28 1    
    15    9   10 ar   
    16    9   29 1    
    17   10   11 1    
    18   11   12 1    
    19   12   13 1    
    20   12   30 1    
    21   12   31 1    
    22   13   32 1    
    23   13   33 1    
    24   14   15 1    
    25   14   34 1    
    26   14   35 1    
    27   15   36 1    
    28   15   37 1    
    29   15   38 1    
    30   16   17 1    
    31   16   39 1    
    32   17   18 ar   
    33   17   26 ar   
    34   18   19 ar   
    35   18   23 ar   
    36   19   20 ar   
    37   19   40 1    
    38   20   21 ar   
    39   20   41 1    
    40   21   22 ar   
    41   21   42 1    
    42   22   23 ar   
    43   22   43 1    
    44   23   24 ar   
    45   24   25 ar   
    46   24   44 1    
    47   25   26 ar   
    48   26   45 1    
@<TRIPOS>SUBSTRUCTURE
     1 LIG         1 GROUP             0 A     ****    0 ROOT    
