@<TRIPOS>MOLECULE
Mpro-x11790_ligand
52   55    1
SMALL
USER_CHARGES


@<TRIPOS>ATOM
      1 O           9.0317    0.8890   21.1183 O.2       1 LIG        -0.5000 
      2 C13         8.6526   -0.1172   21.7240 C.2       1 LIG         0.5000 
      3 C14         7.5991   -1.0189   21.0694 C.3       1 LIG        -0.0050 
      4 C15         6.7594   -0.2473   20.0626 C.ar      1 LIG        -0.6271 
      5 C23         5.6695    0.5663   20.4545 C.ar      1 LIG         0.6486 
      6 C22         5.2777    0.7093   21.8033 C.ar      1 LIG        -0.4445 
      7 C21         4.1871    1.5285   22.1387 C.ar      1 LIG        -0.0460 
      8 C20         3.4798    2.2166   21.1355 C.ar      1 LIG        -0.1533 
      9 C19         3.8680    2.0921   19.7893 C.ar      1 LIG        -0.1818 
     10 C18         4.9565    1.2662   19.4518 C.ar      1 LIG        -0.2505 
     11 C17         5.3601    1.1203   18.1121 C.ar      1 LIG         0.3967 
     12 N2          6.3999    0.3542   17.7366 N.ar      1 LIG        -0.6841 
     13 C16         7.0825   -0.3063   18.6929 C.ar      1 LIG         0.4845 
     14 N1          9.1536   -0.4597   22.9350 N.am      1 LIG        -0.0317 
     15 C8         10.2275    0.3413   23.5263 C.3       1 LIG         0.0650 
     16 C9         11.5773    0.0032   22.9640 C.2       1 LIG        -0.0677 
     17 C12        11.8717   -1.0478   22.1256 C.2       1 LIG        -0.3255 
     18 S          13.5556   -1.1363   21.7308 S.3       1 LIG         0.0328 
     19 C11        13.8545    0.3029   22.6509 C.2       1 LIG        -0.3255 
     20 C10        12.7303    0.7736   23.2621 C.2       1 LIG        -0.0738 
     21 C5          8.7597   -1.6131   23.6627 C.ar      1 LIG        -0.0383 
     22 C4          8.0758   -1.4559   24.8836 C.ar      1 LIG        -0.1150 
     23 C3          7.7936   -2.5723   25.6885 C.ar      1 LIG        -0.1150 
     24 C6          9.1335   -2.9056   23.2386 C.ar      1 LIG        -0.1150 
     25 C7          8.8763   -4.0174   24.0594 C.ar      1 LIG        -0.1150 
     26 C2          8.2186   -3.8656   25.3021 C.ar      1 LIG         0.2100 
     27 N           8.0259   -4.9867   26.1326 N.pl3     1 LIG        -0.6300 
     28 C1          9.1865   -5.8501   26.2850 C.3       1 LIG         0.0300 
     29 C           7.1098   -4.8858   27.2609 C.3       1 LIG         0.0300 
     30 H141        6.9450   -1.4966   21.7977 H         1 LIG         0.0600 
     31 H142        8.1389   -1.8184   20.5741 H         1 LIG         0.0600 
     32 HC22        5.7960    0.1990   22.5996 H         1 LIG         0.2009 
     33 HC21        3.8897    1.6190   23.1710 H         1 LIG         0.1382 
     34 HC20        2.6404    2.8425   21.3985 H         1 LIG         0.1414 
     35 HC19        3.3291    2.6300   19.0210 H         1 LIG         0.1598 
     36 HC17        4.8559    1.6513   17.3207 H         1 LIG         0.0566 
     37 HC16        7.9233   -0.8918   18.3515 H         1 LIG         0.0456 
     38 H8_1       10.2467    0.1895   24.6065 H         1 LIG         0.0600 
     39 H8_2       10.0230    1.4057   23.4036 H         1 LIG         0.0600 
     40 HC12       11.2101   -1.7880   21.7108 H         1 LIG         0.2618 
     41 HC11       14.8274    0.7560   22.6463 H         1 LIG         0.2618 
     42 HC10       12.6862    1.6578   23.8778 H         1 LIG         0.1211 
     43 HC4         7.7957   -0.4733   25.2281 H         1 LIG         0.1150 
     44 HC3         7.2925   -2.4044   26.6294 H         1 LIG         0.1150 
     45 HC6         9.6425   -3.0595   22.3008 H         1 LIG         0.1150 
     46 HC7         9.1934   -4.9931   23.7230 H         1 LIG         0.1150 
     47 H1_1        9.0685   -6.4803   27.1627 H         1 LIG         0.0600 
     48 H1_2        9.3115   -6.4921   25.4157 H         1 LIG         0.0600 
     49 H1_3       10.0977   -5.2667   26.4152 H         1 LIG         0.0600 
     50 HXT1        6.8921   -5.8762   27.6623 H         1 LIG         0.0600 
     51 HXT2        7.5472   -4.2864   28.0596 H         1 LIG         0.0600 
     52 HXT3        6.1624   -4.4373   26.9599 H         1 LIG         0.0600 
@<TRIPOS>BOND
     1    1    2 2    
     2    2    3 1    
     3    2   14 am   BACKBONE|DICT|INTERRES
     4    3    4 1    
     5    3   30 1    
     6    3   31 1    
     7    4    5 ar   
     8    4   13 ar   
     9    5    6 ar   
    10    5   10 ar   
    11    6    7 ar   
    12    6   32 1    
    13    7    8 ar   
    14    7   33 1    
    15    8    9 ar   
    16    8   34 1    
    17    9   10 ar   
    18    9   35 1    
    19   10   11 ar   
    20   11   12 ar   
    21   11   36 1    
    22   12   13 ar   
    23   13   37 1    
    24   14   15 1    
    25   14   21 1    
    26   15   16 1    
    27   15   38 1    
    28   15   39 1    
    29   16   17 2    
    30   16   20 1    
    31   17   18 1    
    32   17   40 1    
    33   18   19 1    
    34   19   20 2    
    35   19   41 1    
    36   20   42 1    
    37   21   22 ar   
    38   21   24 ar   
    39   22   23 ar   
    40   22   43 1    
    41   23   26 ar   
    42   23   44 1    
    43   24   25 ar   
    44   24   45 1    
    45   25   26 ar   
    46   25   46 1    
    47   26   27 1    
    48   27   28 1    
    49   27   29 1    
    50   28   47 1    
    51   28   48 1    
    52   28   49 1    
    53   29   50 1    
    54   29   51 1    
    55   29   52 1    
@<TRIPOS>SUBSTRUCTURE
     1 LIG         1 GROUP             0 A     ****    0 ROOT    
