@<TRIPOS>MOLECULE
Mpro-x11318_ligand
34   35    1
SMALL
USER_CHARGES


@<TRIPOS>ATOM
      1 N3         14.2067   -2.0607   20.5300 N.1       1 LIG        -0.4300 
      2 C13        13.4949   -1.5738   21.2954 C.1       1 LIG         0.3950 
      3 C12        12.5939   -0.9626   22.2481 C.ar      1 LIG         0.0350 
      4 C11        13.0763   -0.0943   23.2459 C.ar      1 LIG        -0.1150 
      5 C10        12.1835    0.4695   24.1769 C.ar      1 LIG        -0.1150 
      6 C9         10.8050    0.2139   24.0726 C.ar      1 LIG        -0.1150 
      7 C14        11.2199   -1.2351   22.1616 C.ar      1 LIG        -0.1150 
      8 C8         10.3189   -0.6136   23.0432 C.ar      1 LIG        -0.1150 
      9 C7          8.8335   -0.8183   22.8423 C.3       1 LIG        -0.0050 
     10 C6          8.3258   -0.0442   21.6171 C.2       1 LIG         0.5000 
     11 O           8.9297    0.9397   21.1827 O.2       1 LIG        -0.5000 
     12 N2          7.1943   -0.5090   21.0717 N.am      1 LIG        -0.3850 
     13 C5          6.5149    0.1162   20.0062 C.ar      1 LIG        -0.2070 
     14 C1          5.3472    0.8784   20.2377 C.ar      1 LIG         0.1770 
     15 C           4.8036    1.0364   21.6511 C.3       1 LIG        -0.0650 
     16 C4          6.9870   -0.0271   18.6873 C.ar      1 LIG         0.4730 
     17 N1          6.3739    0.5266   17.6240 N.ar      1 LIG        -0.6780 
     18 C3          5.2762    1.2733   17.8444 C.ar      1 LIG         0.4730 
     19 C2          4.7348    1.4990   19.1240 C.ar      1 LIG        -0.0920 
     20 N           3.6354    2.3450   19.2517 N.pl3     1 LIG        -0.9200 
     21 HC11       14.1285    0.1281   23.3109 H         1 LIG         0.1150 
     22 HC10       12.5480    1.1186   24.9559 H         1 LIG         0.1150 
     23 HC9        10.1219    0.6683   24.7734 H         1 LIG         0.1150 
     24 HC14       10.8371   -1.9010   21.4050 H         1 LIG         0.1150 
     25 H7_1        8.2794   -0.5027   23.7268 H         1 LIG         0.0600 
     26 H7_2        8.6544   -1.8848   22.7090 H         1 LIG         0.0600 
     27 HN2         6.7282   -1.2825   21.5279 H         1 LIG         0.3000 
     28 HXT1        3.8137    1.4895   21.6750 H         1 LIG         0.0600 
     29 HXT2        4.7237    0.0644   22.1383 H         1 LIG         0.0600 
     30 HXT3        5.4770    1.6579   22.2413 H         1 LIG         0.0600 
     31 HC4         7.8793   -0.5979   18.4771 H         1 LIG         0.0120 
     32 HC3         4.8431    1.7385   16.9731 H         1 LIG         0.0120 
     33 H__1        3.4595    2.9759   18.4797 H         1 LIG         0.3600 
     34 H__2        3.4974    2.7860   20.1506 H         1 LIG         0.3600 
@<TRIPOS>BOND
     1    1    2 3    
     2    2    3 1    
     3    3    4 ar   
     4    3    7 ar   
     5    4    5 ar   
     6    4   21 1    
     7    5    6 ar   
     8    5   22 1    
     9    6    8 ar   
    10    6   23 1    
    11    7    8 ar   
    12    7   24 1    
    13    8    9 1    
    14    9   10 1    
    15    9   25 1    
    16    9   26 1    
    17   10   11 2    
    18   10   12 am   BACKBONE|DICT|INTERRES
    19   12   13 1    
    20   12   27 1    
    21   13   14 ar   
    22   13   16 ar   
    23   14   15 1    
    24   14   19 ar   
    25   15   28 1    
    26   15   29 1    
    27   15   30 1    
    28   16   17 ar   
    29   16   31 1    
    30   17   18 ar   
    31   18   19 ar   
    32   18   32 1    
    33   19   20 1    
    34   20   33 1    
    35   20   34 1    
@<TRIPOS>SUBSTRUCTURE
     1 LIG         1 GROUP             0 A     ****    0 ROOT    
