@<TRIPOS>MOLECULE
Mpro-x12679_ligand
43   46    1
SMALL
USER_CHARGES


@<TRIPOS>ATOM
      1 O2          5.8456    1.0067   16.7414 O.2       1 LIG        -0.5000 
      2 C13         5.3313    0.8596   17.8435 C.ar      1 LIG         0.5567 
      3 C12         5.7030   -0.2040   18.7741 C.ar      1 LIG        -0.1717 
      4 N2          4.3882    1.7160   18.2777 N.pl3     1 LIG        -0.3850 
      5 C14         3.7599    1.6727   19.5434 C.ar      1 LIG         0.0850 
      6 C19         4.1229    0.6680   20.4661 C.ar      1 LIG         0.0000 
      7 C18         3.4900    0.6421   21.7307 C.ar      1 LIG        -0.1150 
      8 C17         2.5024    1.5946   22.0505 C.ar      1 LIG        -0.1150 
      9 C16         2.1443    2.5855   21.1166 C.ar      1 LIG        -0.1150 
     10 C15         2.7795    2.6294   19.8622 C.ar      1 LIG        -0.1150 
     11 C11         5.1577   -0.2888   20.0053 C.ar      1 LIG        -0.0567 
     12 C10         5.6110   -1.3474   20.8990 C.2       1 LIG         0.5567 
     13 O1          5.3211   -2.5313   20.7176 O.2       1 LIG        -0.5000 
     14 N1          6.3740   -0.9291   21.9441 N.am      1 LIG        -0.1400 
     15 C7          6.9223   -1.8746   22.9156 C.3       1 LIG        -0.0500 
     16 C6          8.4353   -1.9872   22.6721 C.3       1 LIG        -0.0500 
     17 C8          6.9128    0.4300   22.1221 C.3       1 LIG        -0.0500 
     18 C9          8.4459    0.4458   22.1694 C.2       1 LIG         0.5000 
     19 O           9.0213    1.4810   21.8243 O.2       1 LIG        -0.5000 
     20 N           9.1071   -0.6805   22.5482 N.am      1 LIG        -0.0317 
     21 C4         10.5126   -0.6425   22.7457 C.ar      1 LIG        -0.0383 
     22 C5         11.3449   -1.5279   22.0325 C.ar      1 LIG        -0.1150 
     23 C          12.7424   -1.4212   22.1355 C.ar      1 LIG         0.1800 
     24 CL         13.7569   -2.4133   21.1607 Cl        1 LIG        -0.1800 
     25 C3         11.0884    0.2945   23.6330 C.ar      1 LIG        -0.1150 
     26 C2         12.4837    0.3700   23.7675 C.ar      1 LIG        -0.1150 
     27 C1         13.3089   -0.4776   23.0087 C.ar      1 LIG        -0.1150 
     28 HC12        6.4500   -0.9208   18.4683 H         1 LIG         0.1150 
     29 HN2         4.1308    2.4796   17.6649 H         1 LIG         0.3000 
     30 HC18        3.7520   -0.0999   22.4681 H         1 LIG         0.1150 
     31 HC17        2.0208    1.5681   23.0168 H         1 LIG         0.1150 
     32 HC16        1.3899    3.3180   21.3634 H         1 LIG         0.1150 
     33 HC15        2.5181    3.3958   19.1472 H         1 LIG         0.1150 
     34 H7_1        6.4566   -2.8604   22.8786 H         1 LIG         0.0600 
     35 H7_2        6.7335   -1.4947   23.9210 H         1 LIG         0.0600 
     36 H6_1        8.6071   -2.5462   21.7518 H         1 LIG         0.0600 
     37 H6_2        8.8922   -2.5643   23.4777 H         1 LIG         0.0600 
     38 H8_1        6.5414    0.8237   23.0692 H         1 LIG         0.0600 
     39 H8_2        6.6089    1.1565   21.3700 H         1 LIG         0.0600 
     40 HC5        10.9123   -2.2591   21.3727 H         1 LIG         0.1150 
     41 HC3        10.4637    0.9702   24.1996 H         1 LIG         0.1150 
     42 HC2        12.9159    1.0968   24.4336 H         1 LIG         0.1150 
     43 HC1        14.3765   -0.3964   23.0873 H         1 LIG         0.1150 
@<TRIPOS>BOND
     1    1    2 2    
     2    2    3 ar   
     3    2    4 ar   
     4    3   11 ar   
     5    3   28 1    
     6    4    5 ar   
     7    4   29 1    
     8    5    6 ar   
     9    5   10 ar   
    10    6    7 ar   
    11    6   11 ar   
    12    7    8 ar   
    13    7   30 1    
    14    8    9 ar   
    15    8   31 1    
    16    9   10 ar   
    17    9   32 1    
    18   10   33 1    
    19   11   12 1    
    20   12   13 2    
    21   12   14 am   BACKBONE|DICT|INTERRES
    22   14   15 1    
    23   14   17 1    
    24   15   16 1    
    25   15   34 1    
    26   15   35 1    
    27   16   20 1    
    28   16   36 1    
    29   16   37 1    
    30   17   18 1    
    31   17   38 1    
    32   17   39 1    
    33   18   19 2    
    34   18   20 am   BACKBONE|DICT|INTERRES
    35   20   21 1    
    36   21   22 ar   
    37   21   25 ar   
    38   22   23 ar   
    39   22   40 1    
    40   23   24 1    
    41   23   27 ar   
    42   25   26 ar   
    43   25   41 1    
    44   26   27 ar   
    45   26   42 1    
    46   27   43 1    
@<TRIPOS>SUBSTRUCTURE
     1 LIG         1 GROUP             0 A     ****    0 ROOT    
