@<TRIPOS>MOLECULE
Mpro-x2912_ligand
35   36    1
SMALL
USER_CHARGES


@<TRIPOS>ATOM
      1 N2         14.2185   -2.1144   20.5130 N.1       1 LIG        -0.4300 
      2 C14        13.5099   -1.6305   21.2827 C.1       1 LIG         0.3950 
      3 C13        12.6093   -1.0259   22.2382 C.ar      1 LIG         0.0350 
      4 C12        13.0669   -0.0948   23.1901 C.ar      1 LIG        -0.1150 
      5 C11        12.1586    0.4771   24.1003 C.ar      1 LIG        -0.1150 
      6 C10        10.7894    0.1561   24.0282 C.ar      1 LIG        -0.1150 
      7 C15        11.2496   -1.3700   22.1904 C.ar      1 LIG        -0.1150 
      8 C9         10.3272   -0.7601   23.0561 C.ar      1 LIG        -0.1150 
      9 C1          8.8468   -1.0523   22.8415 C.3       1 LIG         0.0550 
     10 C           7.9971   -0.9851   24.1239 C.3       1 LIG        -0.1800 
     11 C2          8.3016   -0.1399   21.7272 C.2       1 LIG         0.5000 
     12 O           8.9237    0.8536   21.3416 O.2       1 LIG        -0.5000 
     13 N           7.1363   -0.5206   21.1899 N.am      1 LIG        -0.3850 
     14 C3          6.4692    0.1673   20.1594 C.ar      1 LIG        -0.2070 
     15 C7          5.2574    0.8484   20.4038 C.ar      1 LIG         0.1770 
     16 C8          4.6737    0.9451   21.7974 C.3       1 LIG        -0.0650 
     17 C6          4.6101    1.4740   19.3204 C.ar      1 LIG        -0.4470 
     18 C5          5.2025    1.3952   18.0493 C.ar      1 LIG         0.4730 
     19 N1          6.3683    0.7615   17.8209 N.ar      1 LIG        -0.6780 
     20 C4          6.9845    0.1520   18.8494 C.ar      1 LIG         0.4730 
     21 HC12       14.1088    0.1799   23.2277 H         1 LIG         0.1150 
     22 HC11       12.5042    1.1874   24.8352 H         1 LIG         0.1150 
     23 HC10       10.1022    0.6429   24.7015 H         1 LIG         0.1150 
     24 HC15       10.8962   -2.0809   21.4601 H         1 LIG         0.1150 
     25 HC1         8.7793   -2.0774   22.4714 H         1 LIG         0.0600 
     26 HXT1        6.9677   -1.2902   23.9333 H         1 LIG         0.0600 
     27 HXT2        8.3951   -1.6561   24.8859 H         1 LIG         0.0600 
     28 HXT3        7.9624    0.0165   24.5469 H         1 LIG         0.0600 
     29 HN          6.6590   -1.3178   21.5924 H         1 LIG         0.3000 
     30 H8_1        3.6624    1.3488   21.7658 H         1 LIG         0.0600 
     31 H8_2        4.6340   -0.0365   22.2688 H         1 LIG         0.0600 
     32 H8_3        5.2867    1.6024   22.4156 H         1 LIG         0.0600 
     33 HC6         3.6891    2.0191   19.4593 H         1 LIG         0.1550 
     34 HC5         4.7551    1.8848   17.1992 H         1 LIG         0.0120 
     35 HC4         7.9102   -0.3571   18.6215 H         1 LIG         0.0120 
@<TRIPOS>BOND
     1    1    2 3    
     2    2    3 1    
     3    3    4 ar   
     4    3    7 ar   
     5    4    5 ar   
     6    4   21 1    
     7    5    6 ar   
     8    5   22 1    
     9    6    8 ar   
    10    6   23 1    
    11    7    8 ar   
    12    7   24 1    
    13    8    9 1    
    14    9   10 1    
    15    9   11 1    
    16    9   25 1    
    17   10   26 1    
    18   10   27 1    
    19   10   28 1    
    20   11   12 2    
    21   11   13 am   BACKBONE|DICT|INTERRES
    22   13   14 1    
    23   13   29 1    
    24   14   15 ar   
    25   14   20 ar   
    26   15   16 1    
    27   15   17 ar   
    28   16   30 1    
    29   16   31 1    
    30   16   32 1    
    31   17   18 ar   
    32   17   33 1    
    33   18   19 ar   
    34   18   34 1    
    35   19   20 ar   
    36   20   35 1    
@<TRIPOS>SUBSTRUCTURE
     1 LIG         1 GROUP             0 A     ****    0 ROOT    
