@<TRIPOS>MOLECULE
Mpro-x11831_ligand
39   42    1
SMALL
USER_CHARGES


@<TRIPOS>ATOM
      1 O1          8.7847    0.6333   21.0832 O.2       1 LIG        -0.5000 
      2 C8          8.2754   -0.4672   21.3133 C.2       1 LIG         0.5000 
      3 C7          8.8214   -1.3853   22.4144 C.3       1 LIG        -0.0050 
      4 C6         10.2653   -1.0432   22.7063 C.ar      1 LIG        -0.1150 
      5 C5         10.6130   -0.0498   23.6363 C.ar      1 LIG         0.0850 
      6 O           9.7660    0.6291   24.4657 O.3       1 LIG        -0.2850 
      7 C4         10.5693    1.4475   25.3308 C.3       1 LIG         0.1400 
      8 C3         12.0187    1.4129   24.7912 C.3       1 LIG        -0.0050 
      9 C2         11.9298    0.3553   23.7607 C.ar      1 LIG        -0.1150 
     10 C1         12.9694   -0.2001   22.9977 C.ar      1 LIG        -0.1150 
     11 C18        11.2981   -1.6703   21.9840 C.ar      1 LIG        -0.1150 
     12 C          12.6371   -1.2518   22.1193 C.ar      1 LIG         0.1800 
     13 CL         13.8424   -2.0024   21.1511 Cl        1 LIG        -0.1800 
     14 N           7.2275   -0.9410   20.6292 N.am      1 LIG        -0.3850 
     15 C9          6.4682   -0.1646   19.7305 C.ar      1 LIG        -0.4271 
     16 C17         5.3464    0.5774   20.1658 C.ar      1 LIG         0.6486 
     17 C16         4.9056    0.5614   21.5070 C.ar      1 LIG        -0.4445 
     18 C15         3.7929    1.3299   21.8905 C.ar      1 LIG        -0.0460 
     19 C14         3.1156    2.1214   20.9429 C.ar      1 LIG        -0.1533 
     20 C13         3.5467    2.1445   19.6047 C.ar      1 LIG        -0.1818 
     21 C12         4.6515    1.3630   19.2162 C.ar      1 LIG        -0.2505 
     22 C11         5.0828    1.3381   17.8793 C.ar      1 LIG         0.3967 
     23 N1          6.1299    0.6023   17.4635 N.ar      1 LIG        -0.6841 
     24 C10         6.8133   -0.1250   18.3674 C.ar      1 LIG         0.4845 
     25 H7_1        8.7501   -2.4289   22.1033 H         1 LIG         0.0600 
     26 H7_2        8.2191   -1.2762   23.3162 H         1 LIG         0.0600 
     27 H4_1       10.5274    1.0240   26.3343 H         1 LIG         0.0300 
     28 H4_2       10.1789    2.4640   25.3789 H         1 LIG         0.0300 
     29 H3_1       12.7436    1.0934   25.5318 H         1 LIG         0.0600 
     30 H3_2       12.3283    2.3598   24.3483 H         1 LIG         0.0600 
     31 HC1        13.9878    0.1447   23.1022 H         1 LIG         0.1150 
     32 HC18       11.0540   -2.4542   21.2902 H         1 LIG         0.1150 
     33 HN          6.8376   -1.8309   20.9168 H         1 LIG         0.3000 
     34 HC16        5.4100   -0.0364   22.2512 H         1 LIG         0.2009 
     35 HC15        3.4567    1.3091   22.9159 H         1 LIG         0.1382 
     36 HC14        2.2627    2.7115   21.2447 H         1 LIG         0.1414 
     37 HC13        3.0268    2.7558   18.8804 H         1 LIG         0.1598 
     38 HC11        4.5830    1.9226   17.1218 H         1 LIG         0.0566 
     39 HC10        7.6609   -0.6798   17.9916 H         1 LIG         0.0456 
@<TRIPOS>BOND
     1    1    2 2    
     2    2    3 1    
     3    2   14 am   BACKBONE|DICT|INTERRES
     4    3    4 1    
     5    3   25 1    
     6    3   26 1    
     7    4    5 ar   
     8    4   11 ar   
     9    5    6 1    
    10    5    9 ar   
    11    6    7 1    
    12    7    8 1    
    13    7   27 1    
    14    7   28 1    
    15    8    9 1    
    16    8   29 1    
    17    8   30 1    
    18    9   10 ar   
    19   10   12 ar   
    20   10   31 1    
    21   11   12 ar   
    22   11   32 1    
    23   12   13 1    
    24   14   15 1    
    25   14   33 1    
    26   15   16 ar   
    27   15   24 ar   
    28   16   17 ar   
    29   16   21 ar   
    30   17   18 ar   
    31   17   34 1    
    32   18   19 ar   
    33   18   35 1    
    34   19   20 ar   
    35   19   36 1    
    36   20   21 ar   
    37   20   37 1    
    38   21   22 ar   
    39   22   23 ar   
    40   22   38 1    
    41   23   24 ar   
    42   24   39 1    
@<TRIPOS>SUBSTRUCTURE
     1 LIG         1 GROUP             0 A     ****    0 ROOT    
