@<TRIPOS>MOLECULE
Mpro-x11508_ligand
33   35    1
SMALL
USER_CHARGES


@<TRIPOS>ATOM
      1 O           8.7579    0.8653   21.0213 O.2       1 LIG        -0.5000 
      2 C6          8.2649   -0.2220   21.3299 C.2       1 LIG         0.5000 
      3 C5          8.8133   -1.0271   22.5149 C.3       1 LIG        -0.0050 
      4 C4         10.2618   -0.6746   22.7846 C.ar      1 LIG        -0.1150 
      5 C3         10.5995    0.4245   23.6038 C.ar      1 LIG        -0.1150 
      6 C2         11.9467    0.8096   23.7472 C.ar      1 LIG        -0.1150 
      7 C1         12.9555    0.0992   23.0673 C.ar      1 LIG        -0.1150 
      8 C15        11.2768   -1.4180   22.1578 C.ar      1 LIG        -0.1150 
      9 C          12.6175   -1.0225   22.2836 C.ar      1 LIG         0.1800 
     10 CL         13.8237   -1.8952   21.4251 Cl        1 LIG        -0.1800 
     11 N           7.2213   -0.7550   20.6800 N.am      1 LIG        -0.3850 
     12 C7          6.4828   -0.0618   19.6981 C.ar      1 LIG         0.3906 
     13 C14         5.3141    0.6318   20.1014 C.ar      1 LIG         0.1182 
     14 C9          4.6422    1.3972   19.1225 C.ar      1 LIG         0.1181 
     15 C8          5.1503    1.3716   17.8152 C.ar      1 LIG         0.2770 
     16 N2          6.2446    0.6594   17.4840 N.ar      1 LIG        -0.3444 
     17 N1          6.9071   -0.0377   18.4118 N.ar      1 LIG        -0.3444 
     18 C13         4.8138    0.6092   21.4238 C.ar      1 LIG        -0.3773 
     19 C12         3.6655    1.3532   21.7533 C.ar      1 LIG        -0.0407 
     20 C11         3.0179    2.1323   20.7752 C.ar      1 LIG        -0.0408 
     21 C10         3.5069    2.1587   19.4563 C.ar      1 LIG        -0.3772 
     22 H5_1        8.7266   -2.0963   22.3151 H         1 LIG         0.0600 
     23 H5_2        8.2176   -0.8131   23.4010 H         1 LIG         0.0600 
     24 HC3         9.8242    0.9966   24.0923 H         1 LIG         0.1150 
     25 HC2        12.2037    1.6643   24.3549 H         1 LIG         0.1150 
     26 HC1        13.9848    0.4114   23.1505 H         1 LIG         0.1150 
     27 HC15       11.0244   -2.2663   21.5391 H         1 LIG         0.1150 
     28 HN          6.8411   -1.6316   21.0130 H         1 LIG         0.3000 
     29 HC8         4.6910    1.9433   17.0239 H         1 LIG         0.0287 
     30 HC13        5.2963    0.0297   22.1962 H         1 LIG         0.2111 
     31 HC12        3.2837    1.3291   22.7625 H         1 LIG         0.1275 
     32 HC11        2.1434    2.7096   21.0368 H         1 LIG         0.1275 
     33 HC10        3.0120    2.7617   18.7071 H         1 LIG         0.2111 
@<TRIPOS>BOND
     1    1    2 2    
     2    2    3 1    
     3    2   11 am   BACKBONE|DICT|INTERRES
     4    3    4 1    
     5    3   22 1    
     6    3   23 1    
     7    4    5 ar   
     8    4    8 ar   
     9    5    6 ar   
    10    5   24 1    
    11    6    7 ar   
    12    6   25 1    
    13    7    9 ar   
    14    7   26 1    
    15    8    9 ar   
    16    8   27 1    
    17    9   10 1    
    18   11   12 1    
    19   11   28 1    
    20   12   13 ar   
    21   12   17 ar   
    22   13   14 ar   
    23   13   18 ar   
    24   14   15 ar   
    25   14   21 ar   
    26   15   16 ar   
    27   15   29 1    
    28   16   17 ar   
    29   18   19 ar   
    30   18   30 1    
    31   19   20 ar   
    32   19   31 1    
    33   20   21 ar   
    34   20   32 1    
    35   21   33 1    
@<TRIPOS>SUBSTRUCTURE
     1 LIG         1 GROUP             0 A     ****    0 ROOT    
