@<TRIPOS>MOLECULE
Mpro-x10338_ligand
34   36    1
SMALL
USER_CHARGES


@<TRIPOS>ATOM
      1 CL         13.7562   -1.9534   21.1249 Cl        1 LIG        -0.1800 
      2 C12        12.6992   -1.0430   22.1333 C.ar      1 LIG         0.1800 
      3 C11        13.2103    0.0050   22.9343 C.ar      1 LIG        -0.1150 
      4 C10        12.3526    0.7666   23.7576 C.ar      1 LIG        -0.1150 
      5 C13        11.3201   -1.3338   22.1399 C.ar      1 LIG        -0.1150 
      6 C14        10.4870   -0.5369   22.9385 C.ar      1 LIG        -0.1150 
      7 C9         10.9820    0.4688   23.7499 C.ar      1 LIG         0.0850 
      8 O2         10.0011    1.1109   24.4514 O.3       1 LIG        -0.2850 
      9 C8          8.7781    0.3905   24.2270 C.3       1 LIG         0.1400 
     10 C7          8.9995   -0.5292   22.9977 C.3       1 LIG         0.0550 
     11 C6          8.4504    0.1082   21.7120 C.2       1 LIG         0.5000 
     12 O1          8.9658    1.1274   21.2456 O.2       1 LIG        -0.5000 
     13 N1          7.3980   -0.4965   21.1466 N.am      1 LIG        -0.3850 
     14 C5          6.6671    0.0776   20.0872 C.ar      1 LIG        -0.2070 
     15 C1          5.4308    0.7240   20.3172 C.ar      1 LIG         0.1770 
     16 C           4.8483    0.8300   21.7203 C.3       1 LIG         0.2343 
     17 O           3.8378    1.8062   21.8456 O.3       1 LIG        -0.6333 
     18 C4          7.1785    0.0344   18.7763 C.ar      1 LIG         0.4730 
     19 N           6.5489    0.5949   17.7266 N.ar      1 LIG        -0.6780 
     20 C3          5.3757    1.2143   17.9454 C.ar      1 LIG         0.4730 
     21 C2          4.7720    1.2998   19.2098 C.ar      1 LIG        -0.4470 
     22 HC11       14.2625    0.2330   22.9068 H         1 LIG         0.1150 
     23 HC10       12.7339    1.5743   24.3585 H         1 LIG         0.1150 
     24 HC13       10.9077   -2.1206   21.5289 H         1 LIG         0.1150 
     25 H8_1        7.9429    1.0804   24.0967 H         1 LIG         0.0300 
     26 H8_2        8.5705   -0.2089   25.1146 H         1 LIG         0.0300 
     27 HC7         8.6104   -1.5340   23.1587 H         1 LIG         0.0600 
     28 HN1         6.9927   -1.2973   21.6160 H         1 LIG         0.3000 
     29 HXT1        5.6355    1.0831   22.4303 H         1 LIG         0.0480 
     30 HXT2        4.4485   -0.1382   22.0159 H         1 LIG         0.0480 
     31 HO          4.2416    2.6545   21.6888 H         1 LIG         0.4180 
     32 HC4         8.1256   -0.4420   18.5665 H         1 LIG         0.0120 
     33 HC3         4.9238    1.6803   17.0865 H         1 LIG         0.0120 
     34 HC2         3.8344    1.8244   19.3150 H         1 LIG         0.1550 
@<TRIPOS>BOND
     1    1    2 1    
     2    2    3 ar   
     3    2    5 ar   
     4    3    4 ar   
     5    3   22 1    
     6    4    7 ar   
     7    4   23 1    
     8    5    6 ar   
     9    5   24 1    
    10    6    7 ar   
    11    6   10 1    
    12    7    8 1    
    13    8    9 1    
    14    9   10 1    
    15    9   25 1    
    16    9   26 1    
    17   10   11 1    
    18   10   27 1    
    19   11   12 2    
    20   11   13 am   BACKBONE|DICT|INTERRES
    21   13   14 1    
    22   13   28 1    
    23   14   15 ar   
    24   14   18 ar   
    25   15   16 1    
    26   15   21 ar   
    27   16   17 1    
    28   16   29 1    
    29   16   30 1    
    30   17   31 1    
    31   18   19 ar   
    32   18   32 1    
    33   19   20 ar   
    34   20   21 ar   
    35   20   33 1    
    36   21   34 1    
@<TRIPOS>SUBSTRUCTURE
     1 LIG         1 GROUP             0 A     ****    0 ROOT    
