@<TRIPOS>MOLECULE
Mpro-x0770_ligand
35   36    1
SMALL
USER_CHARGES


@<TRIPOS>ATOM
      1 N           6.4798   -2.6414   21.1666 N.am      1 LIG        -0.1400 
      2 C           6.1981   -2.4692   18.6809 C.3       1 LIG        -0.1800 
      3 O           5.7526   -4.4049   19.9516 O.2       1 LIG        -0.5000 
      4 C1          6.1528   -3.2437   19.9991 C.2       1 LIG         0.5000 
      5 C10        11.7087   -1.8039   22.8540 C.ar      1 LIG        -0.1150 
      6 C11         8.5734   -1.6605   21.9576 C.3       1 LIG         0.1500 
      7 C12         7.2074   -1.3804   21.3158 C.3       1 LIG        -0.0500 
      8 C2          6.2223   -3.2576   22.4735 C.3       1 LIG        -0.0500 
      9 C3          7.5510   -3.5333   23.2003 C.3       1 LIG         0.1500 
     10 C4          9.6466   -2.5720   24.0558 C.3       1 LIG         0.2650 
     11 C5         10.7395   -1.5442   23.8376 C.ar      1 LIG        -0.1150 
     12 C6         10.7877   -0.3367   24.5659 C.ar      1 LIG        -0.1150 
     13 C7         11.8050    0.6025   24.2927 C.ar      1 LIG        -0.1150 
     14 C8         12.7762    0.3349   23.3067 C.ar      1 LIG        -0.1150 
     15 C9         12.7222   -0.8746   22.5879 C.ar      1 LIG         0.1800 
     16 N1          8.3990   -2.3143   23.2861 N.4       1 LIG        -0.1000 
     17 CL1        13.8889   -1.2572   21.3877 Cl        1 LIG        -0.1800 
     18 HXT1        6.3492   -3.1437   17.8518 H         1 LIG         0.0600 
     19 HXT2        5.2408   -2.0008   18.4880 H         1 LIG         0.0600 
     20 HXT3        7.0048   -1.7484   18.6032 H         1 LIG         0.0600 
     21 HC10       11.6670   -2.7199   22.2894 H         1 LIG         0.1150 
     22 H111        9.0941   -0.7085   22.0561 H         1 LIG         0.0600 
     23 H112        9.1777   -2.2941   21.3047 H         1 LIG         0.0600 
     24 H121        6.6310   -0.7201   21.9629 H         1 LIG         0.0600 
     25 H122        7.3544   -0.8310   20.3952 H         1 LIG         0.0600 
     26 H2_1        5.6428   -4.1786   22.4031 H         1 LIG         0.0600 
     27 H2_2        5.6120   -2.5756   23.0672 H         1 LIG         0.0600 
     28 H3_1        8.0978   -4.3161   22.6709 H         1 LIG         0.0600 
     29 H3_2        7.3523   -3.9094   24.2042 H         1 LIG         0.0600 
     30 H4_1        9.4084   -2.6382   25.1176 H         1 LIG         0.0600 
     31 H4_2       10.0522   -3.5424   23.7699 H         1 LIG         0.0600 
     32 HC6        10.0440   -0.1232   25.3196 H         1 LIG         0.1150 
     33 HC7        11.8445    1.5338   24.8343 H         1 LIG         0.1150 
     34 HC8        13.5597    1.0507   23.1124 H         1 LIG         0.1150 
     35 HN1         7.8783   -1.6452   23.8346 H         1 LIG         0.2900 
@<TRIPOS>BOND
     1    1    4 am   BACKBONE|DICT|INTERRES
     2    1    7 1    
     3    1    8 1    
     4    2    4 1    
     5    2   18 1    
     6    2   19 1    
     7    2   20 1    
     8    3    4 2    
     9    5   11 ar   
    10    5   15 ar   
    11    5   21 1    
    12    6    7 1    
    13    6   16 1    
    14    6   22 1    
    15    6   23 1    
    16    7   24 1    
    17    7   25 1    
    18    8    9 1    
    19    8   26 1    
    20    8   27 1    
    21    9   16 1    
    22    9   28 1    
    23    9   29 1    
    24   10   11 1    
    25   10   16 1    
    26   10   30 1    
    27   10   31 1    
    28   11   12 ar   
    29   12   13 ar   
    30   12   32 1    
    31   13   14 ar   
    32   13   33 1    
    33   14   15 ar   
    34   14   34 1    
    35   15   17 1    
    36   16   35 1    
@<TRIPOS>SUBSTRUCTURE
     1 LIG         1 GROUP             0 A     ****    0 ROOT    
