@<TRIPOS>MOLECULE
Mpro-x10565_ligand
31   32    1
SMALL
USER_CHARGES


@<TRIPOS>ATOM
      1 C9          9.8895    0.3911   24.1562 C.ar      1 LIG        -0.1150 
      2 N           6.2770    0.7235   17.6194 N.ar      1 LIG        -0.6780 
      3 C12        12.1287   -0.7451   22.8931 C.ar      1 LIG         0.1000 
      4 C1          5.0183    0.8754   20.1309 C.ar      1 LIG         0.1770 
      5 C11        12.3015    0.3281   23.7902 C.ar      1 LIG        -0.1150 
      6 C           4.3661    1.0213   21.4901 C.3       1 LIG        -0.0650 
      7 C8          9.7249   -0.6647   23.2336 C.ar      1 LIG        -0.1150 
      8 C2          4.5201    1.5992   19.0305 C.ar      1 LIG        -0.4470 
      9 C6          7.9292   -0.3276   21.5374 C.2       1 LIG         0.5000 
     10 N1          6.7331   -0.6368   21.0227 N.am      1 LIG        -0.3850 
     11 O           8.6543    0.5484   21.0552 O.2       1 LIG        -0.5000 
     12 C5          6.1632    0.0708   19.9442 C.ar      1 LIG        -0.2070 
     13 C7          8.3496   -1.1109   22.7871 C.3       1 LIG        -0.0050 
     14 C4          6.7513    0.0216   18.6644 C.ar      1 LIG         0.4730 
     15 C10        11.1778    0.8905   24.4288 C.ar      1 LIG        -0.1150 
     16 C13        10.8491   -1.2465   22.6255 C.ar      1 LIG        -0.1150 
     17 C3          5.1862    1.4913   17.7983 C.ar      1 LIG         0.4730 
     18 I          13.7317   -1.6132   21.8892 I         1 LIG        -0.1000 
     19 HC9         9.0307    0.8495   24.6227 H         1 LIG         0.1150 
     20 HC11       13.2878    0.7217   23.9801 H         1 LIG         0.1150 
     21 HXT1        4.3286    0.0674   22.0160 H         1 LIG         0.0600 
     22 HXT2        4.9293    1.7295   22.0982 H         1 LIG         0.0600 
     23 HXT3        3.3468    1.3936   21.3923 H         1 LIG         0.0600 
     24 HC2         3.6594    2.2444   19.1307 H         1 LIG         0.1550 
     25 HN1         6.1355   -1.2628   21.5427 H         1 LIG         0.3000 
     26 H7_1        7.6259   -0.9721   23.5885 H         1 LIG         0.0600 
     27 H7_2        8.3673   -2.1774   22.5592 H         1 LIG         0.0600 
     28 HC4         7.6362   -0.5688   18.4790 H         1 LIG         0.0120 
     29 HC10       11.2963    1.7197   25.1074 H         1 LIG         0.1150 
     30 HC13       10.7278   -2.0471   21.9093 H         1 LIG         0.1150 
     31 HC3         4.8493    2.0494   16.9384 H         1 LIG         0.0120 
@<TRIPOS>BOND
     1    1    7 ar   
     2    1   15 ar   
     3    1   19 1    
     4    2   14 ar   
     5    2   17 ar   
     6    3    5 ar   
     7    3   16 ar   
     8    3   18 1    
     9    4    6 1    
    10    4    8 ar   
    11    4   12 ar   
    12    5   15 ar   
    13    5   20 1    
    14    6   21 1    
    15    6   22 1    
    16    6   23 1    
    17    7   13 1    
    18    7   16 ar   
    19    8   17 ar   
    20    8   24 1    
    21    9   10 am   BACKBONE|DICT|INTERRES
    22    9   11 2    
    23    9   13 1    
    24   10   12 1    
    25   10   25 1    
    26   12   14 ar   
    27   13   26 1    
    28   13   27 1    
    29   14   28 1    
    30   15   29 1    
    31   16   30 1    
    32   17   31 1    
@<TRIPOS>SUBSTRUCTURE
     1 LIG         1 GROUP             0 A     ****    0 ROOT    
