@<TRIPOS>MOLECULE
Mpro-x11612_ligand
39   42    1
SMALL
USER_CHARGES


@<TRIPOS>ATOM
      1 O1         10.2210    0.7054   24.8280 O.3       1 LIG        -0.2850 
      2 C7          3.7822    1.4805   21.7696 C.ar      1 LIG        -0.0460 
      3 C6          3.1496    2.1599   20.7125 C.ar      1 LIG        -0.1533 
      4 C5          3.6677    2.0724   19.4074 C.ar      1 LIG        -0.1818 
      5 C4          4.8151    1.2951   19.1649 C.ar      1 LIG        -0.2505 
      6 O           8.9753    0.8482   21.2191 O.2       1 LIG        -0.5000 
      7 C17        11.3876   -1.4096   21.9976 C.ar      1 LIG        -0.1150 
      8 C3          5.3355    1.1639   17.8652 C.ar      1 LIG         0.3967 
      9 C2          7.1007   -0.1392   18.6028 C.ar      1 LIG         0.4845 
     10 C1          6.6602   -0.0821   19.9388 C.ar      1 LIG        -0.4271 
     11 C18        10.5056   -0.7653   22.8835 C.ar      1 LIG        -0.1150 
     12 C           8.4546   -0.2136   21.5720 C.2       1 LIG         0.5000 
     13 CL         13.8121   -1.8898   20.8973 Cl        1 LIG        -0.1800 
     14 N           7.3938   -0.7427   20.9480 N.am      1 LIG        -0.3850 
     15 C8          4.9448    0.7237   21.5336 C.ar      1 LIG        -0.4445 
     16 C16        12.7563   -1.0992   22.0030 C.ar      1 LIG         0.1800 
     17 C15        13.2518   -0.1496   22.9155 C.ar      1 LIG        -0.1150 
     18 C14        12.3840    0.4437   23.8509 C.ar      1 LIG        -0.1150 
     19 C13        11.0112    0.1334   23.8555 C.ar      1 LIG         0.0850 
     20 C12         8.8150    0.6956   24.6100 C.3       1 LIG         0.1400 
     21 C11         8.3128   -0.6547   24.0801 C.3       1 LIG        -0.1200 
     22 C10         9.0141   -1.0202   22.7629 C.3       1 LIG         0.0550 
     23 N1          6.4485    0.4596   17.5873 N.ar      1 LIG        -0.6841 
     24 C9          5.4759    0.6333   20.2278 C.ar      1 LIG         0.6486 
     25 HC7         3.3792    1.5442   22.7686 H         1 LIG         0.1382 
     26 HC6         2.2637    2.7484   20.9011 H         1 LIG         0.1414 
     27 HC5         3.1816    2.5986   18.5986 H         1 LIG         0.1598 
     28 HC17       11.0005   -2.1401   21.3082 H         1 LIG         0.1150 
     29 HC3         4.8716    1.6609   17.0278 H         1 LIG         0.0566 
     30 HC2         8.0039   -0.6711   18.3408 H         1 LIG         0.0456 
     31 HN          6.9855   -1.5855   21.3380 H         1 LIG         0.3000 
     32 HC8         5.4242    0.2260   22.3626 H         1 LIG         0.2009 
     33 HC15       14.2989    0.1044   22.9150 H         1 LIG         0.1150 
     34 HC14       12.7679    1.1470   24.5692 H         1 LIG         0.1150 
     35 H121        8.5742    1.4939   23.9127 H         1 LIG         0.0300 
     36 H122        8.3166    0.9385   25.5485 H         1 LIG         0.0300 
     37 H111        7.2295   -0.6381   23.9537 H         1 LIG         0.0600 
     38 H112        8.5211   -1.4241   24.8246 H         1 LIG         0.0600 
     39 HC10        8.8600   -2.0819   22.5620 H         1 LIG         0.0600 
@<TRIPOS>BOND
     1    1   19 1    
     2    1   20 1    
     3    2    3 ar   
     4    2   15 ar   
     5    2   25 1    
     6    3    4 ar   
     7    3   26 1    
     8    4    5 ar   
     9    4   27 1    
    10    5    8 ar   
    11    5   24 ar   
    12    6   12 2    
    13    7   11 ar   
    14    7   16 ar   
    15    7   28 1    
    16    8   23 ar   
    17    8   29 1    
    18    9   10 ar   
    19    9   23 ar   
    20    9   30 1    
    21   10   14 1    
    22   10   24 ar   
    23   11   19 ar   
    24   11   22 1    
    25   12   14 am   BACKBONE|DICT|INTERRES
    26   12   22 1    
    27   13   16 1    
    28   14   31 1    
    29   15   24 ar   
    30   15   32 1    
    31   16   17 ar   
    32   17   18 ar   
    33   17   33 1    
    34   18   19 ar   
    35   18   34 1    
    36   20   21 1    
    37   20   35 1    
    38   20   36 1    
    39   21   22 1    
    40   21   37 1    
    41   21   38 1    
    42   22   39 1    
@<TRIPOS>SUBSTRUCTURE
     1 LIG         1 GROUP             0 A     ****    0 ROOT    
