@<TRIPOS>MOLECULE
Mpro-x11789_ligand
31   33    1
SMALL
USER_CHARGES


@<TRIPOS>ATOM
      1 O           8.6244    0.7856   21.1984 O.2       1 LIG        -0.5000 
      2 C6          8.1876   -0.3246   21.5121 C.2       1 LIG         0.5000 
      3 C5          8.7050   -1.0436   22.7661 C.3       1 LIG        -0.0050 
      4 C4         10.1556   -0.6902   23.0303 C.ar      1 LIG        -0.1150 
      5 C3         10.4898    0.3401   23.9339 C.ar      1 LIG        -0.1150 
      6 C2         11.8328    0.7314   24.0899 C.ar      1 LIG        -0.1150 
      7 C1         12.8443    0.0998   23.3403 C.ar      1 LIG        -0.1150 
      8 C13        11.1748   -1.3609   22.3279 C.ar      1 LIG        -0.1150 
      9 C          12.5137   -0.9594   22.4736 C.ar      1 LIG         0.1800 
     10 CL         13.7329   -1.7512   21.5544 Cl        1 LIG        -0.1800 
     11 N           7.2387   -0.9736   20.8179 N.am      1 LIG        -0.3000 
     12 N1          6.6472   -0.3509   19.7383 N.pl3     1 LIG         0.1861 
     13 C12         5.4721    0.3527   19.8559 C.ar      1 LIG        -0.0957 
     14 C7          5.3391    0.8339   18.5347 C.ar      1 LIG         0.2502 
     15 N3          6.3762    0.3687   17.7441 N.2       1 LIG        -0.4222 
     16 N2          7.1642   -0.3488   18.4860 N.2       1 LIG         0.0816 
     17 C11         4.5557    0.6640   20.8729 C.ar      1 LIG        -0.1150 
     18 C10         3.4746    1.5098   20.5613 C.ar      1 LIG        -0.1150 
     19 C9          3.3324    2.0231   19.2530 C.ar      1 LIG        -0.1150 
     20 C8          4.2539    1.6837   18.2424 C.ar      1 LIG        -0.1150 
     21 H5_1        8.6221   -2.1246   22.6445 H         1 LIG         0.0600 
     22 H5_2        8.0880   -0.7677   23.6219 H         1 LIG         0.0600 
     23 HC3         9.7163    0.8558   24.4835 H         1 LIG         0.1150 
     24 HC2        12.0839    1.5334   24.7654 H         1 LIG         0.1150 
     25 HC1        13.8715    0.4164   23.4396 H         1 LIG         0.1150 
     26 HC13       10.9251   -2.1576   21.6434 H         1 LIG         0.1150 
     27 HN          6.7531   -1.8001   21.1476 H         1 LIG         0.3000 
     28 HC11        4.6857    0.2764   21.8724 H         1 LIG         0.1150 
     29 HC10        2.7576    1.7747   21.3242 H         1 LIG         0.1150 
     30 HC9         2.5091    2.6794   19.0189 H         1 LIG         0.1150 
     31 HC8         4.1396    2.0846   17.2465 H         1 LIG         0.1150 
@<TRIPOS>BOND
     1    1    2 2    
     2    2    3 1    
     3    2   11 am   BACKBONE|DICT|INTERRES
     4    3    4 1    
     5    3   21 1    
     6    3   22 1    
     7    4    5 ar   
     8    4    8 ar   
     9    5    6 ar   
    10    5   23 1    
    11    6    7 ar   
    12    6   24 1    
    13    7    9 ar   
    14    7   25 1    
    15    8    9 ar   
    16    8   26 1    
    17    9   10 1    
    18   11   12 1    
    19   11   27 1    
    20   12   13 ar   
    21   12   16 ar   
    22   13   14 ar   
    23   13   17 ar   
    24   14   15 ar   
    25   14   20 ar   
    26   15   16 ar   
    27   17   18 ar   
    28   17   28 1    
    29   18   19 ar   
    30   18   29 1    
    31   19   20 ar   
    32   19   30 1    
    33   20   31 1    
@<TRIPOS>SUBSTRUCTURE
     1 LIG         1 GROUP             0 A     ****    0 ROOT    
