@<TRIPOS>MOLECULE
Mpro-x11764_ligand
47   49    1
SMALL
USER_CHARGES


@<TRIPOS>ATOM
      1 CL         13.3243    0.8122   23.5627 Cl        1 LIG        -0.1800 
      2 C10        11.7247    0.2482   23.8262 C.ar      1 LIG         0.1800 
      3 C9         11.0684   -0.4564   22.8072 C.ar      1 LIG        -0.1150 
      4 C11        11.0843    0.4710   25.0574 C.ar      1 LIG        -0.1150 
      5 C12         9.7876   -0.0231   25.2967 C.ar      1 LIG         0.2000 
      6 N2          9.2191    0.2124   26.5566 N.pl3     1 LIG        -0.7800 
      7 C13         7.8345   -0.1156   26.8705 C.3       1 LIG         0.1400 
      8 C17         6.8382    0.9757   26.4501 C.3       1 LIG         0.2050 
      9 O1          6.4501    0.8757   25.0938 O.3       1 LIG        -0.6830 
     10 C16         5.6200    0.7344   27.3508 C.3       1 LIG        -0.1200 
     11 C15         6.1598    0.1130   28.6459 C.3       1 LIG        -0.1200 
     12 C14         7.6358   -0.2077   28.3871 C.3       1 LIG        -0.1200 
     13 C18         9.1295   -0.7329   24.2665 C.ar      1 LIG        -0.1150 
     14 C8          9.7628   -0.9323   23.0228 C.ar      1 LIG        -0.1150 
     15 C7          9.0211   -1.6066   21.8925 C.3       1 LIG        -0.0050 
     16 C6          8.3136   -0.5508   21.0399 C.2       1 LIG         0.5000 
     17 O           8.8543    0.5315   20.8003 O.2       1 LIG        -0.5000 
     18 N1          7.0817   -0.8533   20.6134 N.am      1 LIG        -0.3850 
     19 C5          6.3770   -0.0621   19.6850 C.ar      1 LIG        -0.2070 
     20 C1          5.2827    0.7435   20.0688 C.ar      1 LIG         0.1770 
     21 C           4.8059    0.7989   21.5063 C.3       1 LIG        -0.0650 
     22 C4          6.7786   -0.0611   18.3360 C.ar      1 LIG         0.4730 
     23 N           6.1776    0.6825   17.3876 N.ar      1 LIG        -0.6780 
     24 C3          5.1481    1.4676   17.7618 C.ar      1 LIG         0.4730 
     25 C2          4.6603    1.5315   19.0803 C.ar      1 LIG        -0.4470 
     26 HC9        11.5558   -0.6105   21.8551 H         1 LIG         0.1150 
     27 HC11       11.5950    1.0220   25.8250 H         1 LIG         0.1150 
     28 HN2         9.7466    0.7344   27.2467 H         1 LIG         0.3800 
     29 HC13        7.5493   -1.0778   26.4448 H         1 LIG         0.0600 
     30 HC17        7.2530    1.9656   26.6477 H         1 LIG         0.0600 
     31 HO1         6.0452    0.0319   24.9616 H         1 LIG         0.4180 
     32 H161        4.9360    0.0245   26.8824 H         1 LIG         0.0600 
     33 H162        5.0587    1.6515   27.5317 H         1 LIG         0.0600 
     34 H151        5.6025   -0.7912   28.8930 H         1 LIG         0.0600 
     35 H152        6.0585    0.7984   29.4881 H         1 LIG         0.0600 
     36 H141        8.2475    0.5367   28.8985 H         1 LIG         0.0600 
     37 H142        7.9259   -1.1835   28.7753 H         1 LIG         0.0600 
     38 HC18        8.1308   -1.1174   24.4009 H         1 LIG         0.1150 
     39 H7_1        8.3125   -2.3270   22.2980 H         1 LIG         0.0600 
     40 H7_2        9.7190   -2.1660   21.2702 H         1 LIG         0.0600 
     41 HN1         6.6411   -1.7026   20.9446 H         1 LIG         0.3000 
     42 HXT1        3.8748    1.3592   21.5919 H         1 LIG         0.0600 
     43 HXT2        4.6332   -0.2054   21.8904 H         1 LIG         0.0600 
     44 HXT3        5.5551    1.2825   22.1335 H         1 LIG         0.0600 
     45 HC4         7.6159   -0.6630   18.0148 H         1 LIG         0.0120 
     46 HC3         4.7243    2.0871   16.9889 H         1 LIG         0.0120 
     47 HC2         3.8387    2.1892   19.3230 H         1 LIG         0.1550 
@<TRIPOS>BOND
     1    1    2 1    
     2    2    3 ar   
     3    2    4 ar   
     4    3   14 ar   
     5    3   26 1    
     6    4    5 ar   
     7    4   27 1    
     8    5    6 1    
     9    5   13 ar   
    10    6    7 1    
    11    6   28 1    
    12    7    8 1    
    13    7   12 1    
    14    7   29 1    
    15    8    9 1    
    16    8   10 1    
    17    8   30 1    
    18    9   31 1    
    19   10   11 1    
    20   10   32 1    
    21   10   33 1    
    22   11   12 1    
    23   11   34 1    
    24   11   35 1    
    25   12   36 1    
    26   12   37 1    
    27   13   14 ar   
    28   13   38 1    
    29   14   15 1    
    30   15   16 1    
    31   15   39 1    
    32   15   40 1    
    33   16   17 2    
    34   16   18 am   BACKBONE|DICT|INTERRES
    35   18   19 1    
    36   18   41 1    
    37   19   20 ar   
    38   19   22 ar   
    39   20   21 1    
    40   20   25 ar   
    41   21   42 1    
    42   21   43 1    
    43   21   44 1    
    44   22   23 ar   
    45   22   45 1    
    46   23   24 ar   
    47   24   25 ar   
    48   24   46 1    
    49   25   47 1    
@<TRIPOS>SUBSTRUCTURE
     1 LIG         1 GROUP             0 A     ****    0 ROOT    
