@<TRIPOS>MOLECULE
Mpro-x12419_ligand
52   55    1
SMALL
USER_CHARGES


@<TRIPOS>ATOM
      1 O           9.0182    1.6196   21.2100 O.2       1 LIG        -0.5000 
      2 C15         8.8622    0.5511   21.8063 C.2       1 LIG         0.5000 
      3 C16         8.1438   -0.6095   21.0847 C.3       1 LIG         0.0025 
      4 N2          7.2732   -0.1116   20.0409 N.pl3     1 LIG         0.0636 
      5 C22         6.0638    0.5396   20.1670 C.ar      1 LIG        -0.0957 
      6 C21         5.2055    0.8886   21.2216 C.ar      1 LIG        -0.1150 
      7 C20         4.0585    1.6509   20.9318 C.ar      1 LIG        -0.1150 
      8 C19         3.7970    2.0579   19.6058 C.ar      1 LIG        -0.1150 
      9 C18         4.6623    1.6852   18.5578 C.ar      1 LIG        -0.1150 
     10 C17         5.8054    0.9075   18.8319 C.ar      1 LIG         0.2502 
     11 N4          6.8010    0.4237   18.0121 N.2       1 LIG        -0.4222 
     12 N3          7.6681   -0.1973   18.7436 N.2       1 LIG         0.0816 
     13 N1          9.2925    0.3670   23.0786 N.am      1 LIG        -0.0317 
     14 C5          9.2211   -0.8979   23.7075 C.ar      1 LIG        -0.0383 
     15 C4          8.3389   -1.0936   24.7850 C.ar      1 LIG        -0.1150 
     16 C3          8.2341   -2.3568   25.3907 C.ar      1 LIG        -0.1150 
     17 C6         10.0202   -1.9646   23.2516 C.ar      1 LIG        -0.1150 
     18 C7          9.9184   -3.2237   23.8631 C.ar      1 LIG        -0.1150 
     19 C2          9.0157   -3.4448   24.9345 C.ar      1 LIG         0.2100 
     20 N           8.9021   -4.7152   25.5335 N.pl3     1 LIG        -0.6300 
     21 C1          9.8336   -5.7611   25.1596 C.3       1 LIG         0.0300 
     22 C           7.8564   -4.9923   26.5081 C.3       1 LIG         0.0300 
     23 C8          9.8238    1.4882   23.8656 C.3       1 LIG         0.0650 
     24 C9         11.2415    1.8426   23.4606 C.ar      1 LIG        -0.1150 
     25 C14        11.5016    3.0286   22.7453 C.ar      1 LIG        -0.1150 
     26 C13        12.8049    3.3088   22.2964 C.ar      1 LIG        -0.1150 
     27 C12        13.8494    2.4065   22.5699 C.ar      1 LIG        -0.1150 
     28 C11        13.5974    1.2299   23.2985 C.ar      1 LIG        -0.1150 
     29 C10        12.2948    0.9533   23.7509 C.ar      1 LIG        -0.1150 
     30 H161        7.5244   -1.1878   21.7708 H         1 LIG         0.0600 
     31 H162        8.8838   -1.2867   20.6569 H         1 LIG         0.0600 
     32 HC21        5.4275    0.5847   22.2320 H         1 LIG         0.1150 
     33 HC20        3.3842    1.9384   21.7238 H         1 LIG         0.1150 
     34 HC19        2.9261    2.6572   19.3872 H         1 LIG         0.1150 
     35 HC18        4.4582    2.0019   17.5463 H         1 LIG         0.1150 
     36 HC4         7.7290   -0.2786   25.1423 H         1 LIG         0.1150 
     37 HC3         7.5444   -2.4649   26.2133 H         1 LIG         0.1150 
     38 HC6        10.7093   -1.8229   22.4311 H         1 LIG         0.1150 
     39 HC7        10.5495   -4.0108   23.4852 H         1 LIG         0.1150 
     40 H1_1        9.6478   -6.6649   25.7294 H         1 LIG         0.0600 
     41 H1_2        9.7244   -6.0161   24.1053 H         1 LIG         0.0600 
     42 H1_3       10.8605   -5.4482   25.3482 H         1 LIG         0.0600 
     43 HXT1        7.8599   -6.0388   26.8114 H         1 LIG         0.0600 
     44 HXT2        8.0065   -4.3901   27.4006 H         1 LIG         0.0600 
     45 HXT3        6.8720   -4.7688   26.0955 H         1 LIG         0.0600 
     46 H8_1        9.8291    1.2405   24.9284 H         1 LIG         0.0600 
     47 H8_2        9.1751    2.3604   23.7749 H         1 LIG         0.0600 
     48 HC14       10.6963    3.7095   22.5143 H         1 LIG         0.1150 
     49 HC13       12.9975    4.2036   21.7233 H         1 LIG         0.1150 
     50 HC12       14.8462    2.6124   22.2137 H         1 LIG         0.1150 
     51 HC11       14.4027    0.5418   23.5063 H         1 LIG         0.1150 
     52 HC10       12.0953    0.0537   24.3113 H         1 LIG         0.1150 
@<TRIPOS>BOND
     1    1    2 2    
     2    2    3 1    
     3    2   13 am   BACKBONE|DICT|INTERRES
     4    3    4 1    
     5    3   30 1    
     6    3   31 1    
     7    4    5 ar   
     8    4   12 ar   
     9    5    6 ar   
    10    5   10 ar   
    11    6    7 ar   
    12    6   32 1    
    13    7    8 ar   
    14    7   33 1    
    15    8    9 ar   
    16    8   34 1    
    17    9   10 ar   
    18    9   35 1    
    19   10   11 ar   
    20   11   12 ar   
    21   13   14 1    
    22   13   23 1    
    23   14   15 ar   
    24   14   17 ar   
    25   15   16 ar   
    26   15   36 1    
    27   16   19 ar   
    28   16   37 1    
    29   17   18 ar   
    30   17   38 1    
    31   18   19 ar   
    32   18   39 1    
    33   19   20 1    
    34   20   21 1    
    35   20   22 1    
    36   21   40 1    
    37   21   41 1    
    38   21   42 1    
    39   22   43 1    
    40   22   44 1    
    41   22   45 1    
    42   23   24 1    
    43   23   46 1    
    44   23   47 1    
    45   24   25 ar   
    46   24   29 ar   
    47   25   26 ar   
    48   25   48 1    
    49   26   27 ar   
    50   26   49 1    
    51   27   28 ar   
    52   27   50 1    
    53   28   29 ar   
    54   28   51 1    
    55   29   52 1    
@<TRIPOS>SUBSTRUCTURE
     1 LIG         1 GROUP             0 A     ****    0 ROOT    
