@<TRIPOS>MOLECULE
Mpro-x11011_ligand
31   32    1
SMALL
USER_CHARGES


@<TRIPOS>ATOM
      1 C9         10.4760    0.8269   22.9376 C.ar      1 LIG        -0.1150 
      2 N           6.0034    0.5218   17.4361 N.ar      1 LIG        -0.6780 
      3 C12        12.4875   -1.0682   22.4226 C.ar      1 LIG         0.1800 
      4 C1          5.0045    1.1435   20.0019 C.ar      1 LIG         0.1770 
      5 C11        12.8273    0.1916   22.9460 C.ar      1 LIG        -0.1150 
      6 C           4.4793    1.5326   21.3694 C.3       1 LIG        -0.0650 
      7 C8         10.1418   -0.4316   22.3858 C.ar      1 LIG         0.0850 
      8 C2          4.5414    1.8258   18.8601 C.ar      1 LIG        -0.4470 
      9 N1          8.8191   -0.7708   22.0271 N.am      1 LIG        -0.3850 
     10 C6          6.6179   -0.5981   21.0021 C.3       1 LIG         0.0430 
     11 O           8.2591    1.1609   20.9761 O.2       1 LIG        -0.5000 
     12 C5          5.9825    0.1336   19.8311 C.ar      1 LIG        -0.4550 
     13 C7          7.9780    0.0173   21.3401 C.2       1 LIG         0.5000 
     14 C4          6.4347   -0.1407   18.5259 C.ar      1 LIG         0.4730 
     15 C10        11.8202    1.1373   23.2149 C.ar      1 LIG        -0.1150 
     16 C13        11.1458   -1.3912   22.1691 C.ar      1 LIG        -0.1150 
     17 C3          5.0813    1.4869   17.6082 C.ar      1 LIG         0.4730 
     18 CL         13.7119   -2.2037   22.0269 Cl        1 LIG        -0.1800 
     19 HC9         9.7117    1.5667   23.1274 H         1 LIG         0.1150 
     20 HC11       13.8630    0.4330   23.1157 H         1 LIG         0.1150 
     21 HXT1        4.0677    0.6678   21.8847 H         1 LIG         0.0600 
     22 HXT2        5.2840    1.9435   21.9780 H         1 LIG         0.0600 
     23 HXT3        3.6937    2.2843   21.2940 H         1 LIG         0.0600 
     24 HC2         3.8124    2.6197   18.9368 H         1 LIG         0.1550 
     25 HN1         8.5404   -1.7302   22.1705 H         1 LIG         0.3000 
     26 H6_1        6.7371   -1.6504   20.7450 H         1 LIG         0.0600 
     27 H6_2        5.9878   -0.5675   21.8887 H         1 LIG         0.0600 
     28 HC4         7.1953   -0.8874   18.3536 H         1 LIG         0.0120 
     29 HC10       12.0805    2.1100   23.6007 H         1 LIG         0.1150 
     30 HC13       10.8987   -2.3528   21.7465 H         1 LIG         0.1150 
     31 HC3         4.7961    2.0318   16.7230 H         1 LIG         0.0120 
@<TRIPOS>BOND
     1    1    7 ar   
     2    1   15 ar   
     3    1   19 1    
     4    2   14 ar   
     5    2   17 ar   
     6    3    5 ar   
     7    3   16 ar   
     8    3   18 1    
     9    4    6 1    
    10    4    8 ar   
    11    4   12 ar   
    12    5   15 ar   
    13    5   20 1    
    14    6   21 1    
    15    6   22 1    
    16    6   23 1    
    17    7    9 1    
    18    7   16 ar   
    19    8   17 ar   
    20    8   24 1    
    21    9   13 am   BACKBONE|DICT|INTERRES
    22    9   25 1    
    23   10   12 1    
    24   10   13 1    
    25   10   26 1    
    26   10   27 1    
    27   11   13 2    
    28   12   14 ar   
    29   14   28 1    
    30   15   29 1    
    31   16   30 1    
    32   17   31 1    
@<TRIPOS>SUBSTRUCTURE
     1 LIG         1 GROUP             0 A     ****    0 ROOT    
