@<TRIPOS>MOLECULE
Mpro-x2646_ligand
31   32    1
SMALL
USER_CHARGES


@<TRIPOS>ATOM
      1 CL         13.7680   -1.8639   21.1696 Cl        1 LIG        -0.1800 
      2 C12        12.6331   -1.0540   22.1761 C.ar      1 LIG         0.1800 
      3 C11        13.0455   -0.0368   23.0584 C.ar      1 LIG        -0.1150 
      4 C10        12.1006    0.6094   23.8794 C.ar      1 LIG        -0.1150 
      5 C9         10.7397    0.2592   23.7960 C.ar      1 LIG        -0.1150 
      6 C13        11.2791   -1.4135   22.1063 C.ar      1 LIG        -0.1150 
      7 C8         10.3261   -0.7387   22.8894 C.ar      1 LIG        -0.1150 
      8 C7          8.8565   -1.0419   22.6842 C.3       1 LIG        -0.0050 
      9 C6          8.2893   -0.1963   21.5364 C.2       1 LIG         0.5000 
     10 O           8.8964    0.7880   21.1069 O.2       1 LIG        -0.5000 
     11 N1          7.0990   -0.5809   21.0563 N.am      1 LIG        -0.3850 
     12 C5          6.4243    0.0911   20.0161 C.ar      1 LIG        -0.2070 
     13 C1          5.2465    0.8281   20.2684 C.ar      1 LIG         0.1770 
     14 C           4.6591    0.9233   21.6614 C.3       1 LIG        -0.0650 
     15 C4          6.9179    0.0376   18.6975 C.ar      1 LIG         0.4730 
     16 N           6.3190    0.6583   17.6623 N.ar      1 LIG        -0.6780 
     17 C3          5.2088    1.3812   17.9120 C.ar      1 LIG         0.4730 
     18 C2          4.6379    1.5017   19.1912 C.ar      1 LIG        -0.4470 
     19 HC11       14.0837    0.2450   23.1065 H         1 LIG         0.1150 
     20 HC10       12.4137    1.3911   24.5525 H         1 LIG         0.1150 
     21 HC9        10.0106    0.7827   24.3968 H         1 LIG         0.1150 
     22 HC13       10.9639   -2.1891   21.4271 H         1 LIG         0.1150 
     23 H7_1        8.2988   -0.8508   23.6002 H         1 LIG         0.0600 
     24 H7_2        8.7382   -2.1014   22.4516 H         1 LIG         0.0600 
     25 HN1         6.6165   -1.3430   21.5147 H         1 LIG         0.3000 
     26 HXT1        3.7610    1.5398   21.6696 H         1 LIG         0.0600 
     27 HXT2        4.3974   -0.0663   22.0344 H         1 LIG         0.0600 
     28 HXT3        5.3798    1.3680   22.3468 H         1 LIG         0.0600 
     29 HC4         7.8181   -0.5140   18.4660 H         1 LIG         0.0120 
     30 HC3         4.7823    1.8999   17.0690 H         1 LIG         0.0120 
     31 HC2         3.7548    2.1053   19.3358 H         1 LIG         0.1550 
@<TRIPOS>BOND
     1    1    2 1    
     2    2    3 ar   
     3    2    6 ar   
     4    3    4 ar   
     5    3   19 1    
     6    4    5 ar   
     7    4   20 1    
     8    5    7 ar   
     9    5   21 1    
    10    6    7 ar   
    11    6   22 1    
    12    7    8 1    
    13    8    9 1    
    14    8   23 1    
    15    8   24 1    
    16    9   10 2    
    17    9   11 am   BACKBONE|DICT|INTERRES
    18   11   12 1    
    19   11   25 1    
    20   12   13 ar   
    21   12   15 ar   
    22   13   14 1    
    23   13   18 ar   
    24   14   26 1    
    25   14   27 1    
    26   14   28 1    
    27   15   16 ar   
    28   15   29 1    
    29   16   17 ar   
    30   17   18 ar   
    31   17   30 1    
    32   18   31 1    
@<TRIPOS>SUBSTRUCTURE
     1 LIG         1 GROUP             0 A     ****    0 ROOT    
