@<TRIPOS>MOLECULE
Mpro-x0691_ligand
34   35    1
SMALL
USER_CHARGES


@<TRIPOS>ATOM
      1 N           5.4641   -5.5579   24.3918 N.pl3     1 LIG        -0.5376 
      2 C           2.9313   -1.9663   25.9234 C.ar      1 LIG         0.2200 
      3 O           3.9167   -6.9502   25.9276 O.2       1 LIG        -0.4680 
      4 C1          1.5655   -2.2577   25.7343 C.ar      1 LIG        -0.1150 
      5 C10         6.4740   -4.1726   20.8834 C.2       1 LIG         0.5000 
      6 C11         7.1521   -2.8127   21.0450 C.3       1 LIG        -0.1800 
      7 C2          1.1421   -3.5916   25.5731 C.ar      1 LIG        -0.1150 
      8 C3          2.0836   -4.6384   25.6122 C.ar      1 LIG        -0.1150 
      9 C4          3.4471   -4.3422   25.8153 C.ar      1 LIG         0.1567 
     10 C5          3.8762   -3.0089   25.9652 C.ar      1 LIG        -0.1150 
     11 C6          6.5485   -4.5635   24.2303 C.3       1 LIG         0.0588 
     12 C7          7.4585   -4.9313   23.0491 C.3       1 LIG        -0.0133 
     13 C8          5.7468   -6.2476   22.0146 C.3       1 LIG        -0.0133 
     14 C9          4.7548   -5.9664   23.1588 C.3       1 LIG         0.0588 
     15 F           3.3349   -0.6815   26.0603 F         1 LIG        -0.2200 
     16 N1          6.6201   -5.0892   21.8635 N.am      1 LIG        -0.1400 
     17 O1          5.6072   -5.3471   26.9728 O.2       1 LIG        -0.4680 
     18 O2          5.7942   -4.3736   19.8775 O.2       1 LIG        -0.5000 
     19 S           4.6412   -5.6712   25.9100 S.o2      1 LIG         0.8327 
     20 HC1         0.8433   -1.4549   25.7050 H         1 LIG         0.1150 
     21 H111        6.8632   -2.1422   20.2348 H         1 LIG         0.0600 
     22 H112        6.8590   -2.3416   21.9836 H         1 LIG         0.0600 
     23 H113        8.2380   -2.9131   21.0278 H         1 LIG         0.0600 
     24 HC2         0.0952   -3.8108   25.4217 H         1 LIG         0.1150 
     25 HC3         1.7537   -5.6593   25.4905 H         1 LIG         0.1150 
     26 HC5         4.9211   -2.7850   26.1196 H         1 LIG         0.1150 
     27 H6_1        7.1439   -4.5075   25.1413 H         1 LIG         0.0733 
     28 H6_2        6.1081   -3.5789   24.0756 H         1 LIG         0.0733 
     29 H7_1        7.9844   -5.8656   23.2537 H         1 LIG         0.0600 
     30 H7_2        8.2440   -4.1862   22.9285 H         1 LIG         0.0600 
     31 H8_1        5.2098   -6.4824   21.0975 H         1 LIG         0.0600 
     32 H8_2        6.3448   -7.1305   22.2485 H         1 LIG         0.0600 
     33 H9_1        4.0611   -5.1761   22.8712 H         1 LIG         0.0733 
     34 H9_2        4.1587   -6.8574   23.3549 H         1 LIG         0.0733 
@<TRIPOS>BOND
     1    1   11 1    
     2    1   14 1    
     3    1   19 1    
     4    2    4 ar   
     5    2   10 ar   
     6    2   15 1    
     7    3   19 2    
     8    4    7 ar   
     9    4   20 1    
    10    5    6 1    
    11    5   16 am   BACKBONE|DICT|INTERRES
    12    5   18 2    
    13    6   21 1    
    14    6   22 1    
    15    6   23 1    
    16    7    8 ar   
    17    7   24 1    
    18    8    9 ar   
    19    8   25 1    
    20    9   10 ar   
    21    9   19 1    
    22   10   26 1    
    23   11   12 1    
    24   11   27 1    
    25   11   28 1    
    26   12   16 1    
    27   12   29 1    
    28   12   30 1    
    29   13   14 1    
    30   13   16 1    
    31   13   31 1    
    32   13   32 1    
    33   14   33 1    
    34   14   34 1    
    35   17   19 2    
@<TRIPOS>SUBSTRUCTURE
     1 LIG         1 GROUP             0 A     ****    0 ROOT    
