@<TRIPOS>MOLECULE
Mpro-x11488_ligand
36   37    1
SMALL
USER_CHARGES


@<TRIPOS>ATOM
      1 CL         13.4994   -2.1751   21.4005 Cl        1 LIG        -0.1800 
      2 C14        12.5375   -1.0242   22.2465 C.ar      1 LIG         0.1800 
      3 C13        13.1620    0.0857   22.8419 C.ar      1 LIG        -0.1150 
      4 C12        12.3855    1.0628   23.4839 C.ar      1 LIG        -0.1150 
      5 C11        10.9899    0.9313   23.5471 C.ar      1 LIG        -0.1150 
      6 C15        11.1333   -1.1507   22.2873 C.ar      1 LIG        -0.1150 
      7 C10        10.3518   -0.1655   22.9347 C.ar      1 LIG         0.0000 
      8 C2          8.8816   -0.1736   22.8800 C.2       1 LIG        -0.6579 
      9 C1          8.0810   -0.4596   23.9831 C.2       1 LIG         0.4601 
     10 O1          6.8320   -0.4248   24.0921 O.co2     1 LIG        -0.3739 
     11 O           8.8143   -0.8003   25.1051 O.3       1 LIG        -0.6850 
     12 C           8.1309   -0.9330   26.3514 C.3       1 LIG         0.1100 
     13 C3          8.3722    0.2860   21.5899 C.2       1 LIG         0.5567 
     14 O2          8.9186    1.1749   20.9364 O.2       1 LIG        -0.5000 
     15 N           7.2406   -0.3064   21.1743 N.am      1 LIG        -0.3850 
     16 C4          6.4938    0.1867   20.0796 C.ar      1 LIG        -0.2070 
     17 C8          5.3037    0.9181   20.2873 C.ar      1 LIG         0.1770 
     18 C9          4.7324    1.1248   21.6756 C.3       1 LIG        -0.0650 
     19 C7          4.6702    1.4979   19.1713 C.ar      1 LIG        -0.4470 
     20 C6          5.2369    1.3023   17.8990 C.ar      1 LIG         0.4730 
     21 N1          6.3450    0.5647   17.6884 N.ar      1 LIG        -0.6780 
     22 C5          6.9562    0.0169   18.7587 C.ar      1 LIG         0.4730 
     23 HC13       14.2325    0.2044   22.7830 H         1 LIG         0.1150 
     24 HC12       12.8577    1.9332   23.8988 H         1 LIG         0.1150 
     25 HC11       10.4044    1.7035   24.0242 H         1 LIG         0.1150 
     26 HC15       10.6577   -1.9817   21.7898 H         1 LIG         0.1150 
     27 HXT1        8.8523   -1.1107   27.1477 H         1 LIG         0.0300 
     28 HXT2        7.5822   -0.0286   26.6155 H         1 LIG         0.0300 
     29 HXT3        7.4406   -1.7763   26.3359 H         1 LIG         0.0300 
     30 HN          6.7932   -0.9737   21.7905 H         1 LIG         0.3000 
     31 H9_1        3.7634    1.6223   21.6324 H         1 LIG         0.0600 
     32 H9_2        4.6022    0.1666   22.1760 H         1 LIG         0.0600 
     33 H9_3        5.4031    1.7382   22.2768 H         1 LIG         0.0600 
     34 HC7         3.7765    2.0931   19.2834 H         1 LIG         0.1550 
     35 HC6         4.8030    1.7681   17.0296 H         1 LIG         0.0120 
     36 HC5         7.8551   -0.5455   18.5556 H         1 LIG         0.0120 
@<TRIPOS>BOND
     1    1    2 1    
     2    2    3 ar   
     3    2    6 ar   
     4    3    4 ar   
     5    3   23 1    
     6    4    5 ar   
     7    4   24 1    
     8    5    7 ar   
     9    5   25 1    
    10    6    7 ar   
    11    6   26 1    
    12    7    8 1    
    13    8    9 2    
    14    8   13 1    
    15    9   10 1    
    16    9   11 1    
    17   11   12 1    
    18   12   27 1    
    19   12   28 1    
    20   12   29 1    
    21   13   14 2    
    22   13   15 am   BACKBONE|DICT|INTERRES
    23   15   16 1    
    24   15   30 1    
    25   16   17 ar   
    26   16   22 ar   
    27   17   18 1    
    28   17   19 ar   
    29   18   31 1    
    30   18   32 1    
    31   18   33 1    
    32   19   20 ar   
    33   19   34 1    
    34   20   21 ar   
    35   20   35 1    
    36   21   22 ar   
    37   22   36 1    
@<TRIPOS>SUBSTRUCTURE
     1 LIG         1 GROUP             0 A     ****    0 ROOT    
