@<TRIPOS>MOLECULE
Mpro-x11454_ligand
32   34    1
SMALL
USER_CHARGES


@<TRIPOS>ATOM
      1 O           8.7102    0.9681   21.3546 O.2       1 LIG        -0.5000 
      2 C6          8.3731   -0.1877   21.6233 C.2       1 LIG         0.5000 
      3 C5          8.9496   -0.8978   22.8532 C.3       1 LIG        -0.0050 
      4 C4         10.4319   -0.6023   22.9645 C.ar      1 LIG        -0.1150 
      5 C3         10.8923    0.4992   23.7177 C.ar      1 LIG        -0.1150 
      6 C2         12.2589    0.8361   23.7033 C.ar      1 LIG        -0.1150 
      7 C1         13.1674    0.0729   22.9455 C.ar      1 LIG        -0.1150 
      8 C14        11.3485   -1.3886   22.2422 C.ar      1 LIG        -0.1150 
      9 C          12.7103   -1.0452   22.2216 C.ar      1 LIG         0.1800 
     10 CL         13.7853   -1.9552   21.2345 Cl        1 LIG        -0.1800 
     11 N           7.5164   -0.8880   20.8641 N.am      1 LIG        -0.3850 
     12 C7          6.9202   -0.3827   19.7601 C.ar      1 LIG        -0.2941 
     13 N2          5.8647    0.5176   19.8461 N.pl3     1 LIG         0.3335 
     14 C9          5.5415    0.8635   18.5109 C.ar      1 LIG         0.5728 
     15 N1          6.3142    0.2007   17.6583 N.2       1 LIG        -0.6868 
     16 C8          7.1625   -0.5753   18.4315 C.ar      1 LIG         0.2409 
     17 C13         5.1967    1.0441   20.9131 C.ar      1 LIG        -0.2484 
     18 C12         4.1841    1.9488   20.6999 C.ar      1 LIG        -0.2473 
     19 C11         3.8452    2.3420   19.3859 C.ar      1 LIG        -0.0466 
     20 C10         4.5124    1.8144   18.3088 C.ar      1 LIG        -0.4304 
     21 H5_1        8.7932   -1.9756   22.7841 H         1 LIG         0.0600 
     22 H5_2        8.4312   -0.5550   23.7482 H         1 LIG         0.0600 
     23 HC3        10.1941    1.1123   24.2688 H         1 LIG         0.1150 
     24 HC2        12.6055    1.6984   24.2477 H         1 LIG         0.1150 
     25 HC1        14.2085    0.3526   22.9078 H         1 LIG         0.1150 
     26 HC14       10.9996   -2.2242   21.6551 H         1 LIG         0.1150 
     27 HN          7.3648   -1.8650   21.0739 H         1 LIG         0.3000 
     28 HC8         7.9138   -1.1955   17.9658 H         1 LIG         0.1267 
     29 HC13        5.5035    0.7208   21.9020 H         1 LIG         0.2160 
     30 HC12        3.6542    2.3743   21.5454 H         1 LIG         0.1791 
     31 HC11        3.0603    3.0711   19.2180 H         1 LIG         0.1492 
     32 HC10        4.2712    2.1286   17.3009 H         1 LIG         0.2204 
@<TRIPOS>BOND
     1    1    2 2    
     2    2    3 1    
     3    2   11 am   BACKBONE|DICT|INTERRES
     4    3    4 1    
     5    3   21 1    
     6    3   22 1    
     7    4    5 ar   
     8    4    8 ar   
     9    5    6 ar   
    10    5   23 1    
    11    6    7 ar   
    12    6   24 1    
    13    7    9 ar   
    14    7   25 1    
    15    8    9 ar   
    16    8   26 1    
    17    9   10 1    
    18   11   12 1    
    19   11   27 1    
    20   12   13 ar   
    21   12   16 ar   
    22   13   14 ar   
    23   13   17 ar   
    24   14   15 ar   
    25   14   20 ar   
    26   15   16 ar   
    27   16   28 1    
    28   17   18 ar   
    29   17   29 1    
    30   18   19 ar   
    31   18   30 1    
    32   19   20 ar   
    33   19   31 1    
    34   20   32 1    
@<TRIPOS>SUBSTRUCTURE
     1 LIG         1 GROUP             0 A     ****    0 ROOT    
