@<TRIPOS>MOLECULE
Mpro-x11317_ligand
33   34    1
SMALL
USER_CHARGES


@<TRIPOS>ATOM
      1 CL         13.7228   -1.9758   21.1708 Cl        1 LIG        -0.1800 
      2 C12        12.5880   -1.1848   22.1929 C.ar      1 LIG         0.1800 
      3 C11        12.9991   -0.1581   23.0641 C.ar      1 LIG        -0.1150 
      4 C10        12.0518    0.5012   23.8701 C.ar      1 LIG        -0.1150 
      5 C9         10.6879    0.1702   23.7619 C.ar      1 LIG        -0.1150 
      6 C13        11.2292   -1.5307   22.1055 C.ar      1 LIG        -0.1150 
      7 C8         10.2710   -0.8239   22.8535 C.ar      1 LIG        -0.1150 
      8 C7          8.7970   -1.0871   22.6168 C.3       1 LIG        -0.0050 
      9 C6          8.2663   -0.2309   21.4578 C.2       1 LIG         0.5000 
     10 O           8.8368    0.8060   21.1134 O.2       1 LIG        -0.5000 
     11 N2          7.1570   -0.6780   20.8559 N.am      1 LIG        -0.3850 
     12 C5          6.4751    0.0239   19.8406 C.ar      1 LIG        -0.2070 
     13 C1          5.3761    0.8625   20.1385 C.ar      1 LIG         0.1770 
     14 C           4.8843    1.0047   21.5716 C.3       1 LIG        -0.0650 
     15 C4          6.8829   -0.1150   18.5018 C.ar      1 LIG         0.4730 
     16 N1          6.2861    0.5280   17.4805 N.ar      1 LIG        -0.6780 
     17 C3          5.2598    1.3501   17.7644 C.ar      1 LIG         0.4730 
     18 C2          4.7742    1.5681   19.0684 C.ar      1 LIG        -0.0920 
     19 N           3.7437    2.4869   19.2626 N.pl3     1 LIG        -0.9200 
     20 HC11       14.0372    0.1233   23.1127 H         1 LIG         0.1150 
     21 HC10       12.3628    1.2842   24.5435 H         1 LIG         0.1150 
     22 HC9         9.9557    0.7079   24.3434 H         1 LIG         0.1150 
     23 HC13       10.9142   -2.3015   21.4208 H         1 LIG         0.1150 
     24 H7_1        8.2288   -0.8672   23.5199 H         1 LIG         0.0600 
     25 H7_2        8.6490   -2.1454   22.3959 H         1 LIG         0.0600 
     26 HN2         6.7244   -1.5254   21.2062 H         1 LIG         0.3000 
     27 HXT1        3.8805    1.4238   21.6230 H         1 LIG         0.0600 
     28 HXT2        4.8485    0.0340   22.0673 H         1 LIG         0.0600 
     29 HXT3        5.5586    1.6486   22.1363 H         1 LIG         0.0600 
     30 HC4         7.7167   -0.7490   18.2398 H         1 LIG         0.0120 
     31 HC3         4.8386    1.8793   16.9243 H         1 LIG         0.0120 
     32 H__1        3.6020    3.1525   18.5117 H         1 LIG         0.3600 
     33 H__2        3.7290    2.9398   20.1667 H         1 LIG         0.3600 
@<TRIPOS>BOND
     1    1    2 1    
     2    2    3 ar   
     3    2    6 ar   
     4    3    4 ar   
     5    3   20 1    
     6    4    5 ar   
     7    4   21 1    
     8    5    7 ar   
     9    5   22 1    
    10    6    7 ar   
    11    6   23 1    
    12    7    8 1    
    13    8    9 1    
    14    8   24 1    
    15    8   25 1    
    16    9   10 2    
    17    9   11 am   BACKBONE|DICT|INTERRES
    18   11   12 1    
    19   11   26 1    
    20   12   13 ar   
    21   12   15 ar   
    22   13   14 1    
    23   13   18 ar   
    24   14   27 1    
    25   14   28 1    
    26   14   29 1    
    27   15   16 ar   
    28   15   30 1    
    29   16   17 ar   
    30   17   18 ar   
    31   17   31 1    
    32   18   19 1    
    33   19   32 1    
    34   19   33 1    
@<TRIPOS>SUBSTRUCTURE
     1 LIG         1 GROUP             0 A     ****    0 ROOT    
