@<TRIPOS>MOLECULE
Mpro-x12695_ligand
40   43    1
SMALL
USER_CHARGES


@<TRIPOS>ATOM
      1 O2          8.5066    0.7569   21.1253 O.2       1 LIG        -0.5000 
      2 C9          7.9935   -0.2895   21.5331 C.2       1 LIG         0.5000 
      3 C           8.5440   -0.9844   22.8061 C.3       1 LIG         0.3800 
      4 C8         10.0333   -0.6620   22.9342 C.ar      1 LIG        -0.1150 
      5 C7         11.0192   -1.4608   22.3145 C.ar      1 LIG        -0.1150 
      6 C6         12.3681   -1.0588   22.3345 C.ar      1 LIG         0.1800 
      7 CL         13.5621   -2.0072   21.5322 Cl        1 LIG        -0.1800 
      8 C5         12.7365    0.1436   22.9653 C.ar      1 LIG        -0.1150 
      9 C4         11.7632    0.9304   23.6080 C.ar      1 LIG        -0.1150 
     10 C3         10.4170    0.5209   23.6135 C.ar      1 LIG         0.0850 
     11 N           9.4491    1.3288   24.2615 N.am      1 LIG        -0.3850 
     12 C2          8.1727    0.9590   24.4576 C.2       1 LIG         0.5000 
     13 O1          7.3332    1.7228   24.9301 O.2       1 LIG        -0.5000 
     14 C1          7.7809   -0.4734   24.0576 C.3       1 LIG        -0.1200 
     15 O           8.3081   -2.3830   22.7274 O.3       1 LIG        -0.6830 
     16 N1          6.9404   -0.8455   20.9117 N.am      1 LIG        -0.3850 
     17 C10         6.2277   -0.1625   19.8990 C.ar      1 LIG        -0.4271 
     18 C18         5.1377    0.6848   20.2089 C.ar      1 LIG         0.6486 
     19 C17         4.6319    0.8172   21.5213 C.ar      1 LIG        -0.4445 
     20 C16         3.5628    1.6940   21.7806 C.ar      1 LIG        -0.0460 
     21 C15         2.9957    2.4462   20.7344 C.ar      1 LIG        -0.1533 
     22 C14         3.4930    2.3221   19.4239 C.ar      1 LIG        -0.1818 
     23 C13         4.5543    1.4343   19.1595 C.ar      1 LIG        -0.2505 
     24 C12         5.0593    1.2727   17.8557 C.ar      1 LIG         0.3967 
     25 N2          6.0769    0.4414   17.5540 N.ar      1 LIG        -0.6841 
     26 C11         6.6481   -0.2550   18.5589 C.ar      1 LIG         0.4845 
     27 HC7        10.7416   -2.3591   21.7842 H         1 LIG         0.1150 
     28 HC5        13.7669    0.4629   22.9471 H         1 LIG         0.1150 
     29 HC4        12.0486    1.8544   24.0804 H         1 LIG         0.1150 
     30 HN          9.7379    2.2448   24.5732 H         1 LIG         0.3000 
     31 H1_1        8.0081   -1.1098   24.9147 H         1 LIG         0.0600 
     32 H1_2        6.7011   -0.5367   23.9148 H         1 LIG         0.0600 
     33 HO          8.6449   -2.7879   23.5126 H         1 LIG         0.4180 
     34 HN1         6.5356   -1.6845   21.3040 H         1 LIG         0.3000 
     35 HC17        5.0543    0.2537   22.3390 H         1 LIG         0.2009 
     36 HC16        3.1802    1.7918   22.7857 H         1 LIG         0.1382 
     37 HC15        2.1776    3.1201   20.9414 H         1 LIG         0.1414 
     38 HC14        3.0538    2.9058   18.6263 H         1 LIG         0.1598 
     39 HC12        4.6459    1.8338   17.0318 H         1 LIG         0.0566 
     40 HC11        7.4859   -0.8793   18.2855 H         1 LIG         0.0456 
@<TRIPOS>BOND
     1    1    2 2    
     2    2    3 1    
     3    2   16 am   BACKBONE|DICT|INTERRES
     4    3    4 1    
     5    3   14 1    
     6    3   15 1    
     7    4    5 ar   
     8    4   10 ar   
     9    5    6 ar   
    10    5   27 1    
    11    6    7 1    
    12    6    8 ar   
    13    8    9 ar   
    14    8   28 1    
    15    9   10 ar   
    16    9   29 1    
    17   10   11 1    
    18   11   12 am   BACKBONE|DICT|INTERRES
    19   11   30 1    
    20   12   13 2    
    21   12   14 1    
    22   14   31 1    
    23   14   32 1    
    24   15   33 1    
    25   16   17 1    
    26   16   34 1    
    27   17   18 ar   
    28   17   26 ar   
    29   18   19 ar   
    30   18   23 ar   
    31   19   20 ar   
    32   19   35 1    
    33   20   21 ar   
    34   20   36 1    
    35   21   22 ar   
    36   21   37 1    
    37   22   23 ar   
    38   22   38 1    
    39   23   24 ar   
    40   24   25 ar   
    41   24   39 1    
    42   25   26 ar   
    43   26   40 1    
@<TRIPOS>SUBSTRUCTURE
     1 LIG         1 GROUP             0 A     ****    0 ROOT    
