@<TRIPOS>MOLECULE
Mpro-x11641_ligand
43   45    1
SMALL
USER_CHARGES


@<TRIPOS>ATOM
      1 O2         14.1121    6.5189   21.7270 O.2       1 LIG        -0.5065 
      2 C16        13.5054    5.5110   22.0119 C.2       1 LIG         0.6650 
      3 C15        13.0889    4.2276   21.2975 C.3       1 LIG        -0.1560 
      4 N2         12.9070    5.1064   23.1766 N.am      1 LIG        -0.5450 
      5 C14        12.4089    3.8493   22.6132 C.3       1 LIG         0.2225 
      6 O1         13.0428    2.7223   23.2096 O.3       1 LIG        -0.2850 
      7 C13        12.4935    1.4977   22.9233 C.ar      1 LIG         0.0850 
      8 C12        13.3373    0.4623   22.4780 C.ar      1 LIG        -0.1150 
      9 C11        12.7978   -0.7904   22.1324 C.ar      1 LIG         0.1800 
     10 CL         13.8098   -2.0329   21.5057 Cl        1 LIG        -0.1800 
     11 C10        11.4179   -1.0271   22.2537 C.ar      1 LIG        -0.1150 
     12 C17        11.1144    1.2413   23.0843 C.ar      1 LIG        -0.1150 
     13 C9         10.5641   -0.0130   22.7395 C.ar      1 LIG        -0.1150 
     14 C1          9.0605   -0.2370   22.8922 C.3       1 LIG         0.0550 
     15 C           8.6555   -1.7141   23.1118 C.3       1 LIG        -0.1800 
     16 C2          8.3071    0.4609   21.7431 C.2       1 LIG         0.5000 
     17 O           8.4611    1.6707   21.5594 O.2       1 LIG        -0.5000 
     18 N           7.4974   -0.2828   20.9697 N.am      1 LIG        -0.3850 
     19 C3          6.6429    0.2631   19.9846 C.ar      1 LIG        -0.2070 
     20 C7          5.4740    0.9930   20.3193 C.ar      1 LIG         0.1770 
     21 C8          5.0218    1.1822   21.7568 C.3       1 LIG        -0.0650 
     22 C6          4.7201    1.5578   19.2727 C.ar      1 LIG        -0.4470 
     23 C5          5.1419    1.3485   17.9474 C.ar      1 LIG         0.4730 
     24 N1          6.2240    0.6153   17.6211 N.ar      1 LIG        -0.6780 
     25 C4          6.9536    0.0839   18.6233 C.ar      1 LIG         0.4730 
     26 H151       13.9162    3.5702   21.0467 H         1 LIG         0.0600 
     27 H152       12.4035    4.3439   20.4595 H         1 LIG         0.0600 
     28 HN2        12.8270    5.5394   24.0850 H         1 LIG         0.3000 
     29 HC14       11.3207    3.8181   22.5427 H         1 LIG         0.1000 
     30 HC12       14.3938    0.6464   22.3574 H         1 LIG         0.1150 
     31 HC10       11.0344   -1.9927   21.9630 H         1 LIG         0.1150 
     32 HC17       10.4631    2.0146   23.4646 H         1 LIG         0.1150 
     33 HC1         8.7636    0.2939   23.7981 H         1 LIG         0.0600 
     34 HXT1        7.5895   -1.8020   23.3278 H         1 LIG         0.0600 
     35 HXT2        8.8641   -2.3428   22.2450 H         1 LIG         0.0600 
     36 HXT3        9.1888   -2.1365   23.9643 H         1 LIG         0.0600 
     37 HN          7.4879   -1.2837   21.0983 H         1 LIG         0.3000 
     38 H8_1        3.9735    1.4804   21.8012 H         1 LIG         0.0600 
     39 H8_2        5.1256    0.2571   22.3243 H         1 LIG         0.0600 
     40 H8_3        5.6132    1.9593   22.2413 H         1 LIG         0.0600 
     41 HC6         3.8387    2.1490   19.4719 H         1 LIG         0.1550 
     42 HC5         4.5969    1.7876   17.1270 H         1 LIG         0.0120 
     43 HC4         7.8301   -0.4736   18.3273 H         1 LIG         0.0120 
@<TRIPOS>BOND
     1    1    2 2    
     2    2    3 1    
     3    2    4 am   BACKBONE|DICT|INTERRES
     4    3    5 1    
     5    3   26 1    
     6    3   27 1    
     7    4    5 1    
     8    4   28 1    
     9    5    6 1    
    10    5   29 1    
    11    6    7 1    
    12    7    8 ar   
    13    7   12 ar   
    14    8    9 ar   
    15    8   30 1    
    16    9   10 1    
    17    9   11 ar   
    18   11   13 ar   
    19   11   31 1    
    20   12   13 ar   
    21   12   32 1    
    22   13   14 1    
    23   14   15 1    
    24   14   16 1    
    25   14   33 1    
    26   15   34 1    
    27   15   35 1    
    28   15   36 1    
    29   16   17 2    
    30   16   18 am   BACKBONE|DICT|INTERRES
    31   18   19 1    
    32   18   37 1    
    33   19   20 ar   
    34   19   25 ar   
    35   20   21 1    
    36   20   22 ar   
    37   21   38 1    
    38   21   39 1    
    39   21   40 1    
    40   22   23 ar   
    41   22   41 1    
    42   23   24 ar   
    43   23   42 1    
    44   24   25 ar   
    45   25   43 1    
@<TRIPOS>SUBSTRUCTURE
     1 LIG         1 GROUP             0 A     ****    0 ROOT    
