@<TRIPOS>MOLECULE
Mpro-x12587_ligand
41   44    1
SMALL
USER_CHARGES


@<TRIPOS>ATOM
      1 O           9.0377    0.9822   21.1338 O.2       1 LIG        -0.5000 
      2 C10         8.5772   -0.0187   21.6929 C.2       1 LIG         0.5000 
      3 C6          9.2923   -0.5678   22.9458 C.3       1 LIG         0.0550 
      4 C4         10.7908   -0.3256   22.8569 C.ar      1 LIG        -0.1150 
      5 C3         11.3682    0.7449   23.5701 C.ar      1 LIG        -0.1150 
      6 C2         12.7451    0.9995   23.4566 C.ar      1 LIG        -0.1150 
      7 C1         13.5543    0.1858   22.6441 C.ar      1 LIG        -0.1150 
      8 C5         11.6027   -1.1335   22.0342 C.ar      1 LIG        -0.1150 
      9 C          12.9793   -0.8747   21.9214 C.ar      1 LIG         0.1800 
     10 CL         13.9451   -1.8523   20.8849 Cl        1 LIG        -0.1800 
     11 N           7.4330   -0.6133   21.2751 N.am      1 LIG        -0.1550 
     12 C9          6.9174   -1.8792   21.8162 C.3       1 LIG        -0.0500 
     13 C8          7.4225   -2.2142   23.2241 C.3       1 LIG        -0.1200 
     14 C7          8.9354   -2.0272   23.2760 C.3       1 LIG        -0.1200 
     15 C11         6.7101   -0.0451   20.1960 C.ar      1 LIG        -0.4271 
     16 C19         5.5623    0.7606   20.3940 C.ar      1 LIG         0.6486 
     17 C18         5.0460    1.0431   21.6767 C.ar      1 LIG        -0.4445 
     18 C17         3.9139    1.8697   21.8157 C.ar      1 LIG        -0.0460 
     19 C16         3.2953    2.4229   20.6802 C.ar      1 LIG        -0.1533 
     20 C15         3.7998    2.1463   19.3968 C.ar      1 LIG        -0.1818 
     21 C14         4.9240    1.3111   19.2558 C.ar      1 LIG        -0.2505 
     22 C13         5.4427    1.0127   17.9834 C.ar      1 LIG         0.3967 
     23 N1          6.5357    0.2491   17.8020 N.ar      1 LIG        -0.6841 
     24 C12         7.1605   -0.2557   18.8795 C.ar      1 LIG         0.4845 
     25 HC6         8.9209    0.0365   23.7724 H         1 LIG         0.0600 
     26 HC3        10.7580    1.3864   24.1887 H         1 LIG         0.1150 
     27 HC2        13.1758    1.8340   23.9766 H         1 LIG         0.1150 
     28 HC1        14.6077    0.4003   22.5590 H         1 LIG         0.1150 
     29 HC5        11.1732   -1.9507   21.4762 H         1 LIG         0.1150 
     30 H9_1        7.2128   -2.6756   21.1369 H         1 LIG         0.0600 
     31 H9_2        5.8297   -1.8683   21.8081 H         1 LIG         0.0600 
     32 H8_1        7.1542   -3.2377   23.4880 H         1 LIG         0.0600 
     33 H8_2        6.9415   -1.5658   23.9577 H         1 LIG         0.0600 
     34 H7_1        9.3170   -2.2845   24.2636 H         1 LIG         0.0600 
     35 H7_2        9.3997   -2.7215   22.5754 H         1 LIG         0.0600 
     36 HC18        5.5120    0.6384   22.5617 H         1 LIG         0.2009 
     37 HC17        3.5268    2.0890   22.7983 H         1 LIG         0.1382 
     38 HC16        2.4359    3.0665   20.7952 H         1 LIG         0.1414 
     39 HC15        3.3297    2.5843   18.5279 H         1 LIG         0.1598 
     40 HC13        4.9874    1.4157   17.0904 H         1 LIG         0.0566 
     41 HC12        8.0521   -0.8307   18.6826 H         1 LIG         0.0456 
@<TRIPOS>BOND
     1    1    2 2    
     2    2    3 1    
     3    2   11 am   BACKBONE|DICT|INTERRES
     4    3    4 1    
     5    3   14 1    
     6    3   25 1    
     7    4    5 ar   
     8    4    8 ar   
     9    5    6 ar   
    10    5   26 1    
    11    6    7 ar   
    12    6   27 1    
    13    7    9 ar   
    14    7   28 1    
    15    8    9 ar   
    16    8   29 1    
    17    9   10 1    
    18   11   12 1    
    19   11   15 1    
    20   12   13 1    
    21   12   30 1    
    22   12   31 1    
    23   13   14 1    
    24   13   32 1    
    25   13   33 1    
    26   14   34 1    
    27   14   35 1    
    28   15   16 ar   
    29   15   24 ar   
    30   16   17 ar   
    31   16   21 ar   
    32   17   18 ar   
    33   17   36 1    
    34   18   19 ar   
    35   18   37 1    
    36   19   20 ar   
    37   19   38 1    
    38   20   21 ar   
    39   20   39 1    
    40   21   22 ar   
    41   22   23 ar   
    42   22   40 1    
    43   23   24 ar   
    44   24   41 1    
@<TRIPOS>SUBSTRUCTURE
     1 LIG         1 GROUP             0 A     ****    0 ROOT    
