@<TRIPOS>MOLECULE
Mpro-x10387_ligand
36   38    1
SMALL
USER_CHARGES


@<TRIPOS>ATOM
      1 N           9.3624   -0.5958   21.8872 N.am      1 LIG        -0.3850 
      2 N3         12.0414    4.4262   21.8733 N.am      1 LIG        -0.5450 
      3 N2          4.6270    1.5891   19.0672 N.ar      1 LIG        -0.8390 
      4 C1         11.6770   -1.2319   22.1041 C.ar      1 LIG        -0.1150 
      5 C11        12.0030    3.7576   23.1770 C.3       1 LIG         0.2225 
      6 O1         12.8794    2.6373   23.2238 O.3       1 LIG        -0.2850 
      7 C8          5.2356    0.9569   20.0906 C.ar      1 LIG         0.6530 
      8 C2         10.6980   -0.2250   22.1821 C.ar      1 LIG         0.0850 
      9 C6          6.7956   -0.0134   18.5566 C.ar      1 LIG         0.6530 
     10 C5          6.3539    0.1251   19.8862 C.ar      1 LIG        -0.6070 
     11 C4          7.0813   -0.5388   21.0390 C.3       1 LIG        -0.0050 
     12 C10        12.4245    1.3993   22.8304 C.ar      1 LIG         0.0850 
     13 C13        12.7917    5.4826   22.3235 C.2       1 LIG         0.6650 
     14 C9         11.0697    1.0876   22.5658 C.ar      1 LIG        -0.1150 
     15 F          13.9635   -1.8870   22.2218 F         1 LIG        -0.2200 
     16 C12        12.7106    4.9739   23.7637 C.3       1 LIG        -0.1560 
     17 C14        13.3931    0.3863   22.7009 C.ar      1 LIG        -0.1150 
     18 C          13.0248   -0.9227   22.3411 C.ar      1 LIG         0.2200 
     19 N1          6.1822    0.6238   17.5388 N.ar      1 LIG        -0.8390 
     20 O           8.5718    1.3438   20.9946 O.2       1 LIG        -0.5000 
     21 O2         13.2822    6.4296   21.7505 O.2       1 LIG        -0.5065 
     22 C7          5.1366    1.3905   17.8509 C.ar      1 LIG         0.8740 
     23 C3          8.4147    0.1626   21.3138 C.2       1 LIG         0.5000 
     24 HN          9.1425   -1.5744   22.0069 H         1 LIG         0.3000 
     25 HN3        11.6827    4.1836   20.9607 H         1 LIG         0.3000 
     26 HC1        11.4047   -2.2394   21.8265 H         1 LIG         0.1150 
     27 HC11       11.0101    3.6213   23.6067 H         1 LIG         0.1000 
     28 HC8         4.8359    1.1303   21.0783 H         1 LIG         0.0110 
     29 HC6         7.6581   -0.6147   18.3108 H         1 LIG         0.0110 
     30 H4_1        7.2470   -1.5895   20.7986 H         1 LIG         0.0600 
     31 H4_2        6.4655   -0.5072   21.9383 H         1 LIG         0.0600 
     32 HC9        10.3091    1.8430   22.6636 H         1 LIG         0.1150 
     33 H121       13.6585    4.7134   24.2260 H         1 LIG         0.0600 
     34 H122       12.0840    5.5593   24.4370 H         1 LIG         0.0600 
     35 HC14       14.4287    0.6203   22.8757 H         1 LIG         0.1150 
     36 HC7         4.6736    1.9181   17.0346 H         1 LIG        -0.0320 
@<TRIPOS>BOND
     1    1    8 1    
     2    1   23 am   BACKBONE|DICT|INTERRES
     3    1   24 1    
     4    2    5 1    
     5    2   13 am   BACKBONE|DICT|INTERRES
     6    2   25 1    
     7    3    7 ar   
     8    3   22 ar   
     9    4    8 ar   
    10    4   18 ar   
    11    4   26 1    
    12    5    6 1    
    13    5   16 1    
    14    5   27 1    
    15    6   12 1    
    16    7   10 ar   
    17    7   28 1    
    18    8   14 ar   
    19    9   10 ar   
    20    9   19 ar   
    21    9   29 1    
    22   10   11 1    
    23   11   23 1    
    24   11   30 1    
    25   11   31 1    
    26   12   14 ar   
    27   12   17 ar   
    28   13   16 1    
    29   13   21 2    
    30   14   32 1    
    31   15   18 1    
    32   16   33 1    
    33   16   34 1    
    34   17   18 ar   
    35   17   35 1    
    36   19   22 ar   
    37   20   23 2    
    38   22   36 1    
@<TRIPOS>SUBSTRUCTURE
     1 LIG         1 GROUP             0 A     ****    0 ROOT    
