@<TRIPOS>MOLECULE
Mpro-x10236_ligand
49   51    1
SMALL
USER_CHARGES


@<TRIPOS>ATOM
      1 N           9.0433   -0.6595   22.5800 N.am      1 LIG        -0.2572 
      2 N2          6.2290    0.5562   17.8006 N.ar      1 LIG        -0.6780 
      3 C11         7.5056   -5.4817   27.0637 C.3       1 LIG        -0.1200 
      4 C1         13.1734    0.0761   22.9835 C.ar      1 LIG        -0.1150 
      5 C18         5.1733    1.3441   18.0804 C.ar      1 LIG         0.4730 
      6 C8          8.5085   -3.4696   25.1171 C.3       1 LIG        -0.0600 
      7 C2         12.2589    0.7832   23.7874 C.ar      1 LIG        -0.1150 
      8 C16         5.3608    0.9156   20.4497 C.ar      1 LIG         0.2270 
      9 C6          8.3378   -1.3675   23.6549 C.3       1 LIG        -0.0703 
     10 C5         11.3453   -1.1858   21.9997 C.ar      1 LIG        -0.1150 
     11 C4         10.4276   -0.4478   22.7688 C.ar      1 LIG         0.0850 
     12 C10         8.9822   -5.4447   26.6419 C.3       1 LIG        -0.1200 
     13 C13         7.0195   -3.5347   25.5098 C.3       1 LIG        -0.1200 
     14 C17         4.6949    1.5509   19.3858 C.ar      1 LIG        -0.4470 
     15 C9          9.1447   -4.8667   25.2315 C.3       1 LIG        -0.1200 
     16 C12         6.8535   -4.0978   26.9300 C.3       1 LIG        -0.1200 
     17 C19         6.8755   -0.0402   18.8189 C.ar      1 LIG         0.4730 
     18 C14         8.4547   -0.0374   21.5301 C.2       1 LIG         0.8137 
     19 C          12.7172   -0.9151   22.0951 C.ar      1 LIG         0.1800 
     20 N1          7.2274   -0.4750   21.2068 N.am      1 LIG        -0.4511 
     21 O           9.0106    0.8625   20.8965 O.2       1 LIG        -0.6163 
     22 C7          8.7467   -2.8522   23.7279 C.3       1 LIG        -0.1200 
     23 C3         10.8820    0.5222   23.6841 C.ar      1 LIG        -0.1150 
     24 C15         6.4803    0.1109   20.1632 C.ar      1 LIG        -0.2070 
     25 CL         13.8181   -1.8000   21.1144 Cl        1 LIG        -0.1800 
     26 H111        7.4214   -5.8395   28.0899 H         1 LIG         0.0600 
     27 H112        6.9648   -6.1968   26.4437 H         1 LIG         0.0600 
     28 HC1        14.2236    0.2970   23.0440 H         1 LIG         0.1150 
     29 HC18        4.7074    1.8321   17.2402 H         1 LIG         0.0120 
     30 HC8         9.0099   -2.8295   25.8438 H         1 LIG         0.0600 
     31 HC2        12.6079    1.5427   24.4649 H         1 LIG         0.1150 
     32 HC16        5.0444    1.0848   21.4667 H         1 LIG         0.0650 
     33 H6_1        7.2534   -1.2821   23.5851 H         1 LIG         0.0600 
     34 H6_2        8.5979   -0.8728   24.5919 H         1 LIG         0.0600 
     35 HC5        10.9911   -1.9548   21.3336 H         1 LIG         0.1150 
     36 H101        9.4032   -6.4468   26.6684 H         1 LIG         0.0600 
     37 H102        9.5549   -4.8485   27.3523 H         1 LIG         0.0600 
     38 H131        6.4739   -4.1557   24.7981 H         1 LIG         0.0600 
     39 H132        6.5671   -2.5442   25.4680 H         1 LIG         0.0600 
     40 HC17        3.8459    2.1926   19.5635 H         1 LIG         0.1550 
     41 H9_1       10.2070   -4.8190   24.9875 H         1 LIG         0.0600 
     42 H9_2        8.6797   -5.5413   24.5118 H         1 LIG         0.0600 
     43 H121        7.3061   -3.4104   27.6450 H         1 LIG         0.0600 
     44 H122        5.7952   -4.1598   27.1856 H         1 LIG         0.0600 
     45 HC19        7.7383   -0.6334   18.5533 H         1 LIG         0.0120 
     46 HN1         6.7690   -1.1345   21.8171 H         1 LIG         0.2912 
     47 H7_1        8.2245   -3.4144   22.9555 H         1 LIG         0.0600 
     48 H7_2        9.8082   -2.9574   23.5041 H         1 LIG         0.0600 
     49 HC3        10.1780    1.0888   24.2758 H         1 LIG         0.1150 
@<TRIPOS>BOND
     1    1    9 1    
     2    1   11 1    
     3    1   18 am   BACKBONE|DICT|INTERRES
     4    2    5 ar   
     5    2   17 ar   
     6    3   12 1    
     7    3   16 1    
     8    3   26 1    
     9    3   27 1    
    10    4    7 ar   
    11    4   19 ar   
    12    4   28 1    
    13    5   14 ar   
    14    5   29 1    
    15    6   13 1    
    16    6   15 1    
    17    6   22 1    
    18    6   30 1    
    19    7   23 ar   
    20    7   31 1    
    21    8   14 ar   
    22    8   24 ar   
    23    8   32 1    
    24    9   22 1    
    25    9   33 1    
    26    9   34 1    
    27   10   11 ar   
    28   10   19 ar   
    29   10   35 1    
    30   11   23 ar   
    31   12   15 1    
    32   12   36 1    
    33   12   37 1    
    34   13   16 1    
    35   13   38 1    
    36   13   39 1    
    37   14   40 1    
    38   15   41 1    
    39   15   42 1    
    40   16   43 1    
    41   16   44 1    
    42   17   24 ar   
    43   17   45 1    
    44   18   20 am   BACKBONE|DICT|INTERRES
    45   18   21 2    
    46   19   25 1    
    47   20   24 1    
    48   20   46 1    
    49   22   47 1    
    50   22   48 1    
    51   23   49 1    
@<TRIPOS>SUBSTRUCTURE
     1 LIG         1 GROUP             0 A     ****    0 ROOT    
