@<TRIPOS>MOLECULE
Mpro-x12686_ligand
41   45    1
SMALL
USER_CHARGES


@<TRIPOS>ATOM
      1 O2          8.9147    1.4360   21.3298 O.2       1 LIG        -0.5080 
      2 C8          8.5637    0.3303   21.7490 C.2       1 LIG         0.6305 
      3 C6          9.1404   -0.3597   22.9769 C.3       1 LIG         0.2375 
      4 C5          8.6185    0.2707   24.2809 C.3       1 LIG        -0.1200 
      5 C4          9.3010    1.6147   24.5537 C.3       1 LIG         0.1400 
      6 O          10.7130    1.4818   24.6265 O.3       1 LIG        -0.2850 
      7 C18        10.6589   -0.2860   22.9057 C.ar      1 LIG        -0.1150 
      8 C3         11.3346    0.6793   23.6944 C.ar      1 LIG         0.0850 
      9 C2         12.7203    0.8341   23.5496 C.ar      1 LIG        -0.1150 
     10 C1         13.4496    0.0327   22.6584 C.ar      1 LIG        -0.1150 
     11 C19        11.3981   -1.1147   22.0290 C.ar      1 LIG        -0.1150 
     12 C          12.7923   -0.9558   21.9076 C.ar      1 LIG         0.1800 
     13 CL         13.7045   -1.9647   20.8508 Cl        1 LIG        -0.1800 
     14 N1          7.6704   -0.4885   21.1918 N.am      1 LIG        -0.3300 
     15 C7          7.6328   -1.6841   21.8020 C.2       1 LIG         0.7530 
     16 O1          6.8989   -2.6298   21.5205 O.2       1 LIG        -0.5080 
     17 N           8.5492   -1.6743   22.7807 N.am      1 LIG        -0.5362 
     18 C9          6.8110   -0.0576   20.1556 C.ar      1 LIG        -0.4271 
     19 C17         5.5970    0.6249   20.4202 C.ar      1 LIG         0.6486 
     20 C16         5.0796    0.7808   21.7262 C.ar      1 LIG        -0.4445 
     21 C15         3.8916    1.5049   21.9347 C.ar      1 LIG        -0.0460 
     22 C14         3.2201    2.0926   20.8459 C.ar      1 LIG        -0.1533 
     23 C13         3.7260    1.9453   19.5419 C.ar      1 LIG        -0.1818 
     24 C12         4.9010    1.1986   19.3302 C.ar      1 LIG        -0.2505 
     25 C11         5.4212    1.0255   18.0363 C.ar      1 LIG         0.3967 
     26 N2          6.5565    0.3471   17.7897 N.ar      1 LIG        -0.6841 
     27 C10         7.2411   -0.1722   18.8222 C.ar      1 LIG         0.4845 
     28 H5_1        8.8222   -0.3998   25.1169 H         1 LIG         0.0600 
     29 H5_2        7.5357    0.3987   24.2488 H         1 LIG         0.0600 
     30 H4_1        8.9485    2.0229   25.5009 H         1 LIG         0.0300 
     31 H4_2        9.0525    2.3517   23.7917 H         1 LIG         0.0300 
     32 HC2        13.2143    1.5954   24.1213 H         1 LIG         0.1150 
     33 HC1        14.5121    0.1777   22.5584 H         1 LIG         0.1150 
     34 HC19       10.8931   -1.8634   21.4386 H         1 LIG         0.1150 
     35 HN          8.7266   -2.4512   23.4009 H         1 LIG         0.2912 
     36 HC16        5.5823    0.3487   22.5782 H         1 LIG         0.2009 
     37 HC15        3.4976    1.6173   22.9347 H         1 LIG         0.1382 
     38 HC14        2.3179    2.6607   21.0122 H         1 LIG         0.1414 
     39 HC13        3.2140    2.4083   18.7106 H         1 LIG         0.1598 
     40 HC11        4.9343    1.4555   17.1756 H         1 LIG         0.0566 
     41 HC10        8.1790   -0.6495   18.5782 H         1 LIG         0.0456 
@<TRIPOS>BOND
     1    1    2 2    
     2    2    3 1    
     3    2   14 am   BACKBONE|DICT|INTERRES
     4    3    4 1    
     5    3    7 1    
     6    3   17 1    
     7    4    5 1    
     8    4   28 1    
     9    4   29 1    
    10    5    6 1    
    11    5   30 1    
    12    5   31 1    
    13    6    8 1    
    14    7    8 ar   
    15    7   11 ar   
    16    8    9 ar   
    17    9   10 ar   
    18    9   32 1    
    19   10   12 ar   
    20   10   33 1    
    21   11   12 ar   
    22   11   34 1    
    23   12   13 1    
    24   14   15 am   BACKBONE|DICT|INTERRES
    25   14   18 1    
    26   15   16 2    
    27   15   17 am   BACKBONE|DICT|INTERRES
    28   17   35 1    
    29   18   19 ar   
    30   18   27 ar   
    31   19   20 ar   
    32   19   24 ar   
    33   20   21 ar   
    34   20   36 1    
    35   21   22 ar   
    36   21   37 1    
    37   22   23 ar   
    38   22   38 1    
    39   23   24 ar   
    40   23   39 1    
    41   24   25 ar   
    42   25   26 ar   
    43   25   40 1    
    44   26   27 ar   
    45   27   41 1    
@<TRIPOS>SUBSTRUCTURE
     1 LIG         1 GROUP             0 A     ****    0 ROOT    
