@<TRIPOS>MOLECULE
Mpro-x10466_ligand
32   34    1
SMALL
USER_CHARGES


@<TRIPOS>ATOM
      1 O           8.5289    1.0105   21.4456 O.2       1 LIG        -0.5000 
      2 C6          8.3039   -0.1920   21.6056 C.2       1 LIG         0.5000 
      3 C5          8.8868   -0.9268   22.8176 C.3       1 LIG        -0.0050 
      4 C4         10.3632   -0.6173   22.9536 C.ar      1 LIG        -0.1150 
      5 C3         10.8013    0.4550   23.7601 C.ar      1 LIG        -0.1150 
      6 C2         12.1641    0.8043   23.7839 C.ar      1 LIG        -0.1150 
      7 C1         13.0898    0.0850   23.0049 C.ar      1 LIG        -0.1150 
      8 C14        11.2987   -1.3683   22.2170 C.ar      1 LIG        -0.1150 
      9 C          12.6568   -1.0076   22.2297 C.ar      1 LIG         0.1800 
     10 CL         13.7650   -1.8641   21.2309 Cl        1 LIG        -0.1800 
     11 N           7.5708   -0.9286   20.7532 N.am      1 LIG        -0.3000 
     12 N1          6.8862   -0.2893   19.7334 N.pl3     1 LIG        -0.2185 
     13 C13         5.7899    0.5413   19.8844 C.ar      1 LIG         0.2299 
     14 C8          5.5193    0.9395   18.5413 C.ar      1 LIG         0.4982 
     15 N2          6.3964    0.3510   17.6401 N.2       1 LIG        -0.6787 
     16 C7          7.1739   -0.3835   18.4316 C.ar      1 LIG         0.3611 
     17 C12         5.0119    0.9901   20.9659 C.ar      1 LIG        -0.3290 
     18 C11         3.9436    1.8707   20.7121 C.ar      1 LIG        -0.1817 
     19 C10         3.6744    2.2985   19.3949 C.ar      1 LIG        -0.1490 
     20 C9          4.4570    1.8382   18.3169 C.ar      1 LIG        -0.3696 
     21 H5_1        8.7440   -2.0044   22.7226 H         1 LIG         0.0600 
     22 H5_2        8.3550   -0.6113   23.7157 H         1 LIG         0.0600 
     23 HC3        10.0909    1.0378   24.3276 H         1 LIG         0.1150 
     24 HC2        12.4922    1.6453   24.3730 H         1 LIG         0.1150 
     25 HC1        14.1275    0.3772   22.9928 H         1 LIG         0.1150 
     26 HC14       10.9686   -2.1900   21.5989 H         1 LIG         0.1150 
     27 HN          7.5307   -1.9371   20.7253 H         1 LIG         0.3000 
     28 HC7         7.9945   -0.9731   18.0506 H         1 LIG         0.1177 
     29 HC12        5.2339    0.6714   21.9732 H         1 LIG         0.1984 
     30 HC11        3.3380    2.2328   21.5297 H         1 LIG         0.1607 
     31 HC10        2.8634    2.9852   19.2048 H         1 LIG         0.1514 
     32 HC9         4.2454    2.1819   17.3159 H         1 LIG         0.2091 
@<TRIPOS>BOND
     1    1    2 2    
     2    2    3 1    
     3    2   11 am   BACKBONE|DICT|INTERRES
     4    3    4 1    
     5    3   21 1    
     6    3   22 1    
     7    4    5 ar   
     8    4    8 ar   
     9    5    6 ar   
    10    5   23 1    
    11    6    7 ar   
    12    6   24 1    
    13    7    9 ar   
    14    7   25 1    
    15    8    9 ar   
    16    8   26 1    
    17    9   10 1    
    18   11   12 1    
    19   11   27 1    
    20   12   13 ar   
    21   12   16 ar   
    22   13   14 ar   
    23   13   17 ar   
    24   14   15 ar   
    25   14   20 ar   
    26   15   16 ar   
    27   16   28 1    
    28   17   18 ar   
    29   17   29 1    
    30   18   19 ar   
    31   18   30 1    
    32   19   20 ar   
    33   19   31 1    
    34   20   32 1    
@<TRIPOS>SUBSTRUCTURE
     1 LIG         1 GROUP             0 A     ****    0 ROOT    
