@<TRIPOS>MOLECULE
Mpro-x12321_ligand
43   45    1
SMALL
USER_CHARGES


@<TRIPOS>ATOM
      1 F2          6.3572    0.9122   25.5345 F         1 LIG        -0.2000 
      2 C16         5.7266   -0.1888   25.9384 C.3       1 LIG         0.6000 
      3 F           4.5124    0.1510   26.3696 F         1 LIG        -0.2000 
      4 F1          5.5734   -1.0092   24.8986 F         1 LIG        -0.2000 
      5 C15         6.4599   -0.9200   27.0553 C.3       1 LIG        -0.0600 
      6 C14         6.9254   -0.2133   28.3046 C.3       1 LIG        -0.1200 
      7 C13         7.9495   -0.8195   27.3687 C.3       1 LIG         0.0625 
      8 N2          8.8898    0.1237   26.7796 N.pl3     1 LIG        -0.7025 
      9 C12         9.5119   -0.1655   25.5579 C.ar      1 LIG         0.2000 
     10 C11        10.7996    0.3543   25.3214 C.ar      1 LIG        -0.1150 
     11 C10        11.4535    0.1167   24.0973 C.ar      1 LIG         0.1800 
     12 CL         13.0505    0.7057   23.8333 Cl        1 LIG        -0.1800 
     13 C9         10.8049   -0.6089   23.0855 C.ar      1 LIG        -0.1150 
     14 C17         8.8777   -0.9155   24.5444 C.ar      1 LIG        -0.1150 
     15 C8          9.5001   -1.0968   23.2935 C.ar      1 LIG        -0.1150 
     16 C7          8.7463   -1.7621   22.1554 C.3       1 LIG        -0.0050 
     17 C6          8.0000   -0.7155   21.3156 C.2       1 LIG         0.5000 
     18 O           8.4542    0.4233   21.1753 O.2       1 LIG        -0.5000 
     19 N1          6.8395   -1.1041   20.7667 N.am      1 LIG        -0.3850 
     20 C5          6.1143   -0.3180   19.8434 C.ar      1 LIG        -0.2070 
     21 C1          4.9439    0.3812   20.2152 C.ar      1 LIG         0.1770 
     22 C           4.3931    0.3123   21.6270 C.3       1 LIG        -0.0650 
     23 C4          6.5580   -0.2267   18.5092 C.ar      1 LIG         0.4730 
     24 N           5.9384    0.5181   17.5721 N.ar      1 LIG        -0.6780 
     25 C3          4.8396    1.2073   17.9396 C.ar      1 LIG         0.4730 
     26 C2          4.3020    1.1712   19.2397 C.ar      1 LIG        -0.4470 
     27 HC15        6.0203   -1.8974   27.2460 H         1 LIG         0.0600 
     28 H141        6.7582   -0.7136   29.2564 H         1 LIG         0.0600 
     29 H142        6.8361    0.8715   28.3258 H         1 LIG         0.0600 
     30 HC13        8.4598   -1.7211   27.7033 H         1 LIG         0.0600 
     31 HN2         9.4268    0.6702   27.4420 H         1 LIG         0.3800 
     32 HC11       11.2909    0.9393   26.0794 H         1 LIG         0.1150 
     33 HC9        11.2991   -0.7714   22.1415 H         1 LIG         0.1150 
     34 HC17        7.8922   -1.3200   24.6974 H         1 LIG         0.1150 
     35 H7_1        8.0481   -2.5000   22.5537 H         1 LIG         0.0600 
     36 H7_2        9.4453   -2.2995   21.5141 H         1 LIG         0.0600 
     37 HN1         6.4904   -2.0304   20.9676 H         1 LIG         0.3000 
     38 HXT1        3.4175    0.7948   21.6934 H         1 LIG         0.0600 
     39 HXT2        4.2768   -0.7242   21.9452 H         1 LIG         0.0600 
     40 HXT3        5.0696    0.8110   22.3222 H         1 LIG         0.0600 
     41 HC4         7.4412   -0.7582   18.1871 H         1 LIG         0.0120 
     42 HC3         4.3798    1.8094   17.1732 H         1 LIG         0.0120 
     43 HC2         3.4154    1.7406   19.4761 H         1 LIG         0.1550 
@<TRIPOS>BOND
     1    1    2 1    
     2    2    3 1    
     3    2    4 1    
     4    2    5 1    
     5    5    6 1    
     6    5    7 1    
     7    5   27 1    
     8    6    7 1    
     9    6   28 1    
    10    6   29 1    
    11    7    8 1    
    12    7   30 1    
    13    8    9 1    
    14    8   31 1    
    15    9   10 ar   
    16    9   14 ar   
    17   10   11 ar   
    18   10   32 1    
    19   11   12 1    
    20   11   13 ar   
    21   13   15 ar   
    22   13   33 1    
    23   14   15 ar   
    24   14   34 1    
    25   15   16 1    
    26   16   17 1    
    27   16   35 1    
    28   16   36 1    
    29   17   18 2    
    30   17   19 am   BACKBONE|DICT|INTERRES
    31   19   20 1    
    32   19   37 1    
    33   20   21 ar   
    34   20   23 ar   
    35   21   22 1    
    36   21   26 ar   
    37   22   38 1    
    38   22   39 1    
    39   22   40 1    
    40   23   24 ar   
    41   23   41 1    
    42   24   25 ar   
    43   25   26 ar   
    44   25   42 1    
    45   26   43 1    
@<TRIPOS>SUBSTRUCTURE
     1 LIG         1 GROUP             0 A     ****    0 ROOT    
