@<TRIPOS>MOLECULE
Mpro-x11542_ligand
33   35    1
SMALL
USER_CHARGES


@<TRIPOS>ATOM
      1 O           8.8869    0.8686   20.9898 O.2       1 LIG        -0.5000 
      2 C6          8.3627   -0.1770   21.3807 C.2       1 LIG         0.5000 
      3 C5          8.9614   -0.9825   22.5409 C.3       1 LIG        -0.0050 
      4 C4         10.4345   -0.6785   22.7109 C.ar      1 LIG        -0.1150 
      5 C3         10.8596    0.3949   23.5181 C.ar      1 LIG        -0.1150 
      6 C2         12.2262    0.7247   23.5889 C.ar      1 LIG        -0.1150 
      7 C1         13.1667   -0.0136   22.8441 C.ar      1 LIG        -0.1150 
      8 C15        11.3821   -1.4410   22.0075 C.ar      1 LIG        -0.1150 
      9 C          12.7406   -1.0936   22.0479 C.ar      1 LIG         0.1800 
     10 CL         13.8611   -1.9791   21.0904 Cl        1 LIG        -0.1800 
     11 N           7.2377   -0.6700   20.8469 N.am      1 LIG        -0.3850 
     12 C7          6.4878   -0.0047   19.8541 C.ar      1 LIG        -0.5385 
     13 C14         5.2913    0.6747   20.1672 C.ar      1 LIG         1.0735 
     14 C13         4.7495    0.7174   21.4670 C.ar      1 LIG        -0.8953 
     15 C12         3.5660    1.4497   21.6690 C.ar      1 LIG         0.5617 
     16 N2          2.9202    2.1137   20.6866 N.ar      1 LIG        -0.7217 
     17 C11         3.4480    2.0765   19.4452 C.ar      1 LIG         0.5246 
     18 C10         4.6158    1.3554   19.1345 C.ar      1 LIG        -0.7320 
     19 C9          5.1353    1.2954   17.8310 C.ar      1 LIG         0.5247 
     20 N1          6.2588    0.6187   17.5226 N.ar      1 LIG        -0.7219 
     21 C8          6.9253   -0.0036   18.5162 C.ar      1 LIG         0.5621 
     22 H5_1        8.8342   -2.0503   22.3569 H         1 LIG         0.0600 
     23 H5_2        8.4261   -0.7507   23.4609 H         1 LIG         0.0600 
     24 HC3        10.1274    0.9821   24.0496 H         1 LIG         0.1150 
     25 HC2        12.5503    1.5625   24.1853 H         1 LIG         0.1150 
     26 HC1        14.2100    0.2575   22.8716 H         1 LIG         0.1150 
     27 HC15       11.0579   -2.2757   21.4076 H         1 LIG         0.1150 
     28 HN          6.8152   -1.4762   21.2908 H         1 LIG         0.3000 
     29 HC13        5.2245    0.2164   22.2965 H         1 LIG         0.2720 
     30 HC12        3.1214    1.4970   22.6504 H         1 LIG         0.0431 
     31 HC11        2.9162    2.6242   18.6811 H         1 LIG         0.0448 
     32 HC9         4.6597    1.8156   17.0156 H         1 LIG         0.0449 
     33 HC8         7.8372   -0.5113   18.2355 H         1 LIG         0.0430 
@<TRIPOS>BOND
     1    1    2 2    
     2    2    3 1    
     3    2   11 am   BACKBONE|DICT|INTERRES
     4    3    4 1    
     5    3   22 1    
     6    3   23 1    
     7    4    5 ar   
     8    4    8 ar   
     9    5    6 ar   
    10    5   24 1    
    11    6    7 ar   
    12    6   25 1    
    13    7    9 ar   
    14    7   26 1    
    15    8    9 ar   
    16    8   27 1    
    17    9   10 1    
    18   11   12 1    
    19   11   28 1    
    20   12   13 ar   
    21   12   21 ar   
    22   13   14 ar   
    23   13   18 ar   
    24   14   15 ar   
    25   14   29 1    
    26   15   16 ar   
    27   15   30 1    
    28   16   17 ar   
    29   17   18 ar   
    30   17   31 1    
    31   18   19 ar   
    32   19   20 ar   
    33   19   32 1    
    34   20   21 ar   
    35   21   33 1    
@<TRIPOS>SUBSTRUCTURE
     1 LIG         1 GROUP             0 A     ****    0 ROOT    
