@<TRIPOS>MOLECULE
Mpro-x12659_ligand
38   41    1
SMALL
USER_CHARGES


@<TRIPOS>ATOM
      1 O1          9.1590    0.5609   21.1807 O.2       1 LIG        -0.5000 
      2 C7          8.5404   -0.3477   21.7429 C.2       1 LIG         0.5000 
      3 C6          9.1955   -1.1639   22.8775 C.3       1 LIG         0.0550 
      4 C5          8.5768   -0.8888   24.2555 C.3       1 LIG        -0.1200 
      5 C4          8.9816    0.4987   24.7714 C.3       1 LIG         0.1400 
      6 O          10.3924    0.6977   24.8225 O.3       1 LIG        -0.2850 
      7 C16        12.5109    0.5334   23.7359 C.ar      1 LIG        -0.1150 
      8 C3         11.1638    0.1403   23.8254 C.ar      1 LIG         0.0850 
      9 C2         10.6741   -0.8289   22.9163 C.ar      1 LIG        -0.1150 
     10 C1         11.5474   -1.4441   22.0001 C.ar      1 LIG        -0.1150 
     11 C17        13.3724   -0.0481   22.7865 C.ar      1 LIG        -0.1150 
     12 C          12.8934   -1.0552   21.9303 C.ar      1 LIG         0.1800 
     13 CL         13.9369   -1.8272   20.8012 Cl        1 LIG        -0.1800 
     14 N           7.2821   -0.6683   21.4002 N.am      1 LIG        -0.3850 
     15 C8          6.6061   -0.0750   20.3059 C.ar      1 LIG        -0.5385 
     16 C15         7.1676   -0.1267   19.0135 C.ar      1 LIG         0.5621 
     17 C14         5.4335    1.1017   18.0939 C.ar      1 LIG         0.5247 
     18 C13         4.7989    1.2253   19.3382 C.ar      1 LIG        -0.7320 
     19 N2          6.5937    0.4375   17.9376 N.ar      1 LIG        -0.7219 
     20 C12         3.6141    1.9659   19.4983 C.ar      1 LIG         0.5246 
     21 C11         3.5215    1.4657   21.7519 C.ar      1 LIG         0.5617 
     22 C10         4.7158    0.7218   21.7017 C.ar      1 LIG        -0.8953 
     23 N1          2.9738    2.0759   20.6796 N.ar      1 LIG        -0.7217 
     24 C9          5.3774    0.6064   20.4659 C.ar      1 LIG         1.0735 
     25 HC6         9.0793   -2.2228   22.6412 H         1 LIG         0.0600 
     26 H5_1        8.9277   -1.6424   24.9621 H         1 LIG         0.0600 
     27 H5_2        7.4903   -0.9827   24.2238 H         1 LIG         0.0600 
     28 H4_1        8.5803    0.6513   25.7735 H         1 LIG         0.0300 
     29 H4_2        8.5399    1.2707   24.1491 H         1 LIG         0.0300 
     30 HC16       12.8774    1.2925   24.4027 H         1 LIG         0.1150 
     31 HC1        11.1732   -2.2104   21.3424 H         1 LIG         0.1150 
     32 HC17       14.4001    0.2694   22.7274 H         1 LIG         0.1150 
     33 HN          6.7538   -1.2807   22.0047 H         1 LIG         0.3000 
     34 HC15        8.1098   -0.6247   18.8335 H         1 LIG         0.0430 
     35 HC14        5.0282    1.5695   17.2094 H         1 LIG         0.0449 
     36 HC12        3.1644    2.4768   18.6607 H         1 LIG         0.0448 
     37 HC11        2.9836    1.5659   22.6813 H         1 LIG         0.0431 
     38 HC10        5.1079    0.2663   22.5987 H         1 LIG         0.2720 
@<TRIPOS>BOND
     1    1    2 2    
     2    2    3 1    
     3    2   14 am   BACKBONE|DICT|INTERRES
     4    3    4 1    
     5    3    9 1    
     6    3   25 1    
     7    4    5 1    
     8    4   26 1    
     9    4   27 1    
    10    5    6 1    
    11    5   28 1    
    12    5   29 1    
    13    6    8 1    
    14    7    8 ar   
    15    7   11 ar   
    16    7   30 1    
    17    8    9 ar   
    18    9   10 ar   
    19   10   12 ar   
    20   10   31 1    
    21   11   12 ar   
    22   11   32 1    
    23   12   13 1    
    24   14   15 1    
    25   14   33 1    
    26   15   16 ar   
    27   15   24 ar   
    28   16   19 ar   
    29   16   34 1    
    30   17   18 ar   
    31   17   19 ar   
    32   17   35 1    
    33   18   20 ar   
    34   18   24 ar   
    35   20   23 ar   
    36   20   36 1    
    37   21   22 ar   
    38   21   23 ar   
    39   21   37 1    
    40   22   24 ar   
    41   22   38 1    
@<TRIPOS>SUBSTRUCTURE
     1 LIG         1 GROUP             0 A     ****    0 ROOT    
