@<TRIPOS>MOLECULE
Mpro-x12661_ligand
56   59    1
SMALL
USER_CHARGES


@<TRIPOS>ATOM
      1 O           9.0906    1.0091   21.1188 O.2       1 LIG        -0.5000 
      2 C           8.7986   -0.1164   21.5317 C.2       1 LIG         0.5000 
      3 C1          7.8755   -0.9887   20.6838 C.3       1 LIG        -0.0050 
      4 C2          6.9547   -0.1688   19.7945 C.ar      1 LIG        -0.6271 
      5 C10         5.8542    0.5691   20.2965 C.ar      1 LIG         0.6486 
      6 C9          5.5140    0.5904   21.6669 C.ar      1 LIG        -0.4445 
      7 C8          4.4238    1.3598   22.1136 C.ar      1 LIG        -0.0460 
      8 C7          3.6612    2.1085   21.1983 C.ar      1 LIG        -0.1533 
      9 C6          3.9842    2.0866   19.8289 C.ar      1 LIG        -0.1818 
     10 C5          5.0736    1.3154   19.3812 C.ar      1 LIG        -0.2505 
     11 C4          5.4122    1.2751   18.0167 C.ar      1 LIG         0.3967 
     12 N           6.4489    0.5642   17.5349 N.ar      1 LIG        -0.6841 
     13 C3          7.2026   -0.1299   18.4104 C.ar      1 LIG         0.4845 
     14 N1          9.2885   -0.6160   22.6902 N.am      1 LIG        -0.1400 
     15 C19        10.2282    0.1784   23.4801 C.3       1 LIG         0.0650 
     16 C20        11.6127    0.1046   22.9261 C.2       1 LIG        -0.1787 
     17 S          12.7641    1.3370   23.3303 S.3       1 LIG         0.0328 
     18 C23        13.9781    0.5712   22.3589 C.2       1 LIG        -0.3255 
     19 C22        13.5163   -0.5695   21.7611 C.2       1 LIG        -0.0738 
     20 C21        12.1584   -0.8332   22.0807 C.2       1 LIG        -0.0738 
     21 C11         9.2050   -2.0215   23.1122 C.3       1 LIG        -0.0500 
     22 C12         7.8721   -2.3978   23.7905 C.3       1 LIG        -0.1200 
     23 C13         8.0017   -3.2094   25.0982 C.3       1 LIG        -0.0600 
     24 C18         6.6146   -3.7369   25.5239 C.3       1 LIG        -0.1200 
     25 C17         6.6765   -4.5168   26.8458 C.3       1 LIG        -0.1200 
     26 C16         7.7044   -5.6532   26.7883 C.3       1 LIG        -0.1200 
     27 C15         9.0814   -5.1329   26.3621 C.3       1 LIG        -0.1200 
     28 C14         8.9988   -4.3905   25.0241 C.3       1 LIG        -0.1200 
     29 H1_1        7.2707   -1.6746   21.2711 H         1 LIG         0.0600 
     30 H1_2        8.5498   -1.5766   20.0716 H         1 LIG         0.0600 
     31 HC9         6.0754    0.0238   22.3928 H         1 LIG         0.2009 
     32 HC8         4.1716    1.3674   23.1627 H         1 LIG         0.1382 
     33 HC7         2.8281    2.7008   21.5459 H         1 LIG         0.1414 
     34 HC6         3.4004    2.6650   19.1263 H         1 LIG         0.1598 
     35 HC4         4.8579    1.8466   17.2912 H         1 LIG         0.0566 
     36 HC3         8.0375   -0.6722   17.9919 H         1 LIG         0.0456 
     37 H191       10.2304   -0.1512   24.5201 H         1 LIG         0.0600 
     38 H192        9.9015    1.2188   23.5224 H         1 LIG         0.0600 
     39 HC23       14.9443    1.0381   22.2644 H         1 LIG         0.2618 
     40 HC22       14.0862   -1.2055   21.1005 H         1 LIG         0.1211 
     41 HC21       11.6400   -1.6919   21.6804 H         1 LIG         0.1211 
     42 H111       10.0395   -2.2122   23.7842 H         1 LIG         0.0600 
     43 H112        9.3890   -2.6785   22.2610 H         1 LIG         0.0600 
     44 H121        7.2816   -2.9774   23.0806 H         1 LIG         0.0600 
     45 H122        7.2870   -1.5003   23.9946 H         1 LIG         0.0600 
     46 HC13        8.3609   -2.5255   25.8690 H         1 LIG         0.0600 
     47 H181        6.2085   -4.3825   24.7438 H         1 LIG         0.0600 
     48 H182        5.9162   -2.9051   25.6277 H         1 LIG         0.0600 
     49 H171        5.6929   -4.9145   27.0958 H         1 LIG         0.0600 
     50 H172        6.9470   -3.8322   27.6476 H         1 LIG         0.0600 
     51 H161        7.3624   -6.4065   26.0823 H         1 LIG         0.0600 
     52 H162        7.7771   -6.1428   27.7593 H         1 LIG         0.0600 
     53 H151        9.7859   -5.9582   26.2687 H         1 LIG         0.0600 
     54 H152        9.4778   -4.4700   27.1313 H         1 LIG         0.0600 
     55 H141       10.0059   -4.0666   24.7718 H         1 LIG         0.0600 
     56 H142        8.6963   -5.0827   24.2377 H         1 LIG         0.0600 
@<TRIPOS>BOND
     1    1    2 2    
     2    2    3 1    
     3    2   14 am   BACKBONE|DICT|INTERRES
     4    3    4 1    
     5    3   29 1    
     6    3   30 1    
     7    4    5 ar   
     8    4   13 ar   
     9    5    6 ar   
    10    5   10 ar   
    11    6    7 ar   
    12    6   31 1    
    13    7    8 ar   
    14    7   32 1    
    15    8    9 ar   
    16    8   33 1    
    17    9   10 ar   
    18    9   34 1    
    19   10   11 ar   
    20   11   12 ar   
    21   11   35 1    
    22   12   13 ar   
    23   13   36 1    
    24   14   15 1    
    25   14   21 1    
    26   15   16 1    
    27   15   37 1    
    28   15   38 1    
    29   16   17 1    
    30   16   20 2    
    31   17   18 1    
    32   18   19 2    
    33   18   39 1    
    34   19   20 1    
    35   19   40 1    
    36   20   41 1    
    37   21   22 1    
    38   21   42 1    
    39   21   43 1    
    40   22   23 1    
    41   22   44 1    
    42   22   45 1    
    43   23   24 1    
    44   23   28 1    
    45   23   46 1    
    46   24   25 1    
    47   24   47 1    
    48   24   48 1    
    49   25   26 1    
    50   25   49 1    
    51   25   50 1    
    52   26   27 1    
    53   26   51 1    
    54   26   52 1    
    55   27   28 1    
    56   27   53 1    
    57   27   54 1    
    58   28   55 1    
    59   28   56 1    
@<TRIPOS>SUBSTRUCTURE
     1 LIG         1 GROUP             0 A     ****    0 ROOT    
