@<TRIPOS>MOLECULE
Mpro-x10679_ligand
35   37    1
SMALL
USER_CHARGES


@<TRIPOS>ATOM
      1 N           6.3752    0.8285   17.6610 N.ar      1 LIG        -0.6780 
      2 N2          9.4805   -0.6336   23.4725 N.pl3     1 LIG        -0.2434 
      3 C1          5.0843    0.8365   20.1607 C.ar      1 LIG         0.1770 
      4 C11        12.7887    0.6423   23.8092 C.ar      1 LIG        -0.2243 
      5 C8          9.2539    0.2005   24.5589 C.ar      1 LIG        -0.1072 
      6 C2          4.5668    1.5752   19.0789 C.ar      1 LIG        -0.4470 
      7 C6          8.0389   -0.4722   21.5026 C.2       1 LIG         0.5000 
      8 C5          6.2518    0.0679   19.9560 C.ar      1 LIG        -0.2070 
      9 C4          6.8533    0.0911   18.6808 C.ar      1 LIG         0.4730 
     10 C10        11.4250    0.3474   24.0192 C.ar      1 LIG         0.1233 
     11 C13        12.9451   -1.0409   22.0490 C.ar      1 LIG         0.2271 
     12 C9         10.4170    0.8260   24.9152 C.ar      1 LIG        -0.2567 
     13 C12        13.5411   -0.0364   22.8327 C.ar      1 LIG        -0.2222 
     14 C14        11.5792   -1.3243   22.2024 C.ar      1 LIG        -0.3541 
     15 C           4.4255    0.9378   21.5210 C.3       1 LIG        -0.0650 
     16 N1          6.8138   -0.6908   21.0077 N.am      1 LIG        -0.3850 
     17 O           8.8002    0.3808   21.0407 O.2       1 LIG        -0.5000 
     18 C7          8.4501   -1.3184   22.7154 C.3       1 LIG         0.0025 
     19 C3          5.2521    1.5440   17.8529 C.ar      1 LIG         0.4730 
     20 C15        10.8309   -0.6252   23.1666 C.ar      1 LIG         0.2860 
     21 CL         13.8637   -1.8950   20.8709 Cl        1 LIG        -0.1800 
     22 HC11       13.2469    1.4164   24.3973 H         1 LIG         0.1699 
     23 HC8         8.2619    0.3219   24.9668 H         1 LIG         0.1929 
     24 HC2         3.6849    2.1881   19.1933 H         1 LIG         0.1550 
     25 HC4         7.7456   -0.4822   18.4764 H         1 LIG         0.0120 
     26 HC9        10.5475    1.5631   25.6921 H         1 LIG         0.1377 
     27 HC12       14.5734    0.2250   22.6774 H         1 LIG         0.1489 
     28 HC14       11.1058   -2.0625   21.5739 H         1 LIG         0.1796 
     29 HXT1        4.4433   -0.0158   22.0446 H         1 LIG         0.0600 
     30 HXT2        4.9491    1.6728   22.1320 H         1 LIG         0.0600 
     31 HXT3        3.3874    1.2559   21.4262 H         1 LIG         0.0600 
     32 HN1         6.1946   -1.2961   21.5271 H         1 LIG         0.3000 
     33 H7_1        7.5914   -1.4998   23.3638 H         1 LIG         0.0600 
     34 H7_2        8.8255   -2.2872   22.3849 H         1 LIG         0.0600 
     35 HC3         4.9038    2.1237   17.0116 H         1 LIG         0.0120 
@<TRIPOS>BOND
     1    1    9 ar   
     2    1   19 ar   
     3    2    5 ar   
     4    2   18 1    
     5    2   20 ar   
     6    3    6 ar   
     7    3    8 ar   
     8    3   15 1    
     9    4   10 ar   
    10    4   13 ar   
    11    4   22 1    
    12    5   12 ar   
    13    5   23 1    
    14    6   19 ar   
    15    6   24 1    
    16    7   16 am   BACKBONE|DICT|INTERRES
    17    7   17 2    
    18    7   18 1    
    19    8    9 ar   
    20    8   16 1    
    21    9   25 1    
    22   10   12 ar   
    23   10   20 ar   
    24   11   13 ar   
    25   11   14 ar   
    26   11   21 1    
    27   12   26 1    
    28   13   27 1    
    29   14   20 ar   
    30   14   28 1    
    31   15   29 1    
    32   15   30 1    
    33   15   31 1    
    34   16   32 1    
    35   18   33 1    
    36   18   34 1    
    37   19   35 1    
@<TRIPOS>SUBSTRUCTURE
     1 LIG         1 GROUP             0 A     ****    0 ROOT    
